
     RDKit          3D

 65 67  0  0  0  0  0  0  0  0999 V2000
   -1.4453    0.3331    0.6849 C   0  0  0  0  0  0  0  0  0  0  0  0
   -2.5069    1.3585    1.0945 C   0  0  0  0  0  0  0  0  0  0  0  0
   -3.4223    1.7292   -0.0205 C   0  0  0  0  0  0  0  0  0  0  0  0
   -4.8821    1.7038    0.3141 C   0  0  0  0  0  0  0  0  0  0  0  0
   -5.6462    0.7727   -0.6192 C   0  0  0  0  0  0  0  0  0  0  0  0
   -5.6722   -0.6433   -0.1459 C   0  0  0  0  0  0  0  0  0  0  0  0
   -4.4035   -1.4124   -0.4974 C   0  0  0  0  0  0  0  0  0  0  0  0
   -3.4158   -1.2414    0.6232 C   0  0  0  0  0  0  0  0  0  0  0  0
   -2.0053   -0.9172    0.1320 C   0  0  0  0  0  0  0  0  0  0  0  0
   -1.2274   -2.1685    0.2591 C   0  0  0  0  0  0  0  0  0  0  0  0
    0.0709   -2.1630    0.9707 C   0  0  0  0  0  0  0  0  0  0  0  0
    1.2676   -1.9409    0.0490 C   0  0  0  0  0  0  0  0  0  0  0  0
    1.8658   -0.5753    0.2696 C   0  0  0  0  0  0  0  0  0  0  0  0
    3.2987   -0.4948    0.3798 C   0  0  0  0  0  0  0  0  0  0  0  0
    4.2521   -0.8587    1.3916 C   0  0  0  0  0  0  0  0  0  0  0  0
    5.5429   -0.2657    0.8047 C   0  0  0  0  0  0  0  0  0  0  0  0
    5.3919    1.0569    0.1058 C   0  0  0  0  0  0  0  0  0  0  0  0
    5.1073    1.0426   -1.3421 C   0  0  0  0  0  0  0  0  0  0  0  0
    3.8046    1.2040   -1.9620 C   0  0  0  0  0  0  0  0  0  0  0  0
    2.5169    1.3874   -1.2557 C   0  0  0  0  0  0  0  0  0  0  0  0
    1.6552    0.1773   -1.0532 C   0  0  0  0  0  0  0  0  0  0  0  0
    0.1783    0.4117   -1.2891 C   0  0  0  0  0  0  0  0  0  0  0  0
   -0.5140    1.1087   -0.1888 C   0  0  0  0  0  0  0  0  0  0  0  0
   -0.9875    0.1123    1.6841 H   0  0  0  0  0  0  0  0  0  0  0  0
   -2.9777    1.1348    2.0561 H   0  0  0  0  0  0  0  0  0  0  0  0
   -1.9181    2.2889    1.3246 H   0  0  0  0  0  0  0  0  0  0  0  0
   -3.2160    1.0264   -0.8675 H   0  0  0  0  0  0  0  0  0  0  0  0
   -3.2034    2.7379   -0.4577 H   0  0  0  0  0  0  0  0  0  0  0  0
   -5.3593    2.7061    0.1575 H   0  0  0  0  0  0  0  0  0  0  0  0
   -5.0916    1.4737    1.3873 H   0  0  0  0  0  0  0  0  0  0  0  0
   -5.2022    0.8405   -1.6210 H   0  0  0  0  0  0  0  0  0  0  0  0
   -6.7105    1.1075   -0.7117 H   0  0  0  0  0  0  0  0  0  0  0  0
   -5.7757   -0.6188    0.9674 H   0  0  0  0  0  0  0  0  0  0  0  0
   -6.5749   -1.1705   -0.5265 H   0  0  0  0  0  0  0  0  0  0  0  0
   -4.7420   -2.4738   -0.6209 H   0  0  0  0  0  0  0  0  0  0  0  0
   -4.0061   -1.1327   -1.4898 H   0  0  0  0  0  0  0  0  0  0  0  0
   -3.4255   -2.2195    1.1755 H   0  0  0  0  0  0  0  0  0  0  0  0
   -3.8001   -0.5289    1.3511 H   0  0  0  0  0  0  0  0  0  0  0  0
   -2.1591   -0.7159   -0.9618 H   0  0  0  0  0  0  0  0  0  0  0  0
   -1.8455   -2.9784    0.7363 H   0  0  0  0  0  0  0  0  0  0  0  0
   -1.0191   -2.6228   -0.7479 H   0  0  0  0  0  0  0  0  0  0  0  0
    0.2522   -3.1944    1.3800 H   0  0  0  0  0  0  0  0  0  0  0  0
    0.1485   -1.5222    1.8567 H   0  0  0  0  0  0  0  0  0  0  0  0
    0.8937   -2.1068   -0.9714 H   0  0  0  0  0  0  0  0  0  0  0  0
    2.0760   -2.6677    0.2121 H   0  0  0  0  0  0  0  0  0  0  0  0
    1.3153   -0.1073    1.0986 H   0  0  0  0  0  0  0  0  0  0  0  0
    3.3590    0.5894    0.5356 H   0  0  0  0  0  0  0  0  0  0  0  0
    3.6864   -0.9353   -0.5372 H   0  0  0  0  0  0  0  0  0  0  0  0
    4.1262   -0.4162    2.4041 H   0  0  0  0  0  0  0  0  0  0  0  0
    4.4658   -1.9366    1.5243 H   0  0  0  0  0  0  0  0  0  0  0  0
    6.2627   -0.2677    1.6305 H   0  0  0  0  0  0  0  0  0  0  0  0
    5.8863   -0.9908    0.0500 H   0  0  0  0  0  0  0  0  0  0  0  0
    4.8617    1.8366    0.7019 H   0  0  0  0  0  0  0  0  0  0  0  0
    6.4483    1.4489    0.2199 H   0  0  0  0  0  0  0  0  0  0  0  0
    5.5565    0.0605   -1.6685 H   0  0  0  0  0  0  0  0  0  0  0  0
    5.8256    1.7586   -1.8347 H   0  0  0  0  0  0  0  0  0  0  0  0
    3.8759    2.0039   -2.7527 H   0  0  0  0  0  0  0  0  0  0  0  0
    3.5929    0.3057   -2.6111 H   0  0  0  0  0  0  0  0  0  0  0  0
    1.8568    1.9810   -1.9576 H   0  0  0  0  0  0  0  0  0  0  0  0
    2.5320    2.1013   -0.3979 H   0  0  0  0  0  0  0  0  0  0  0  0
    1.9832   -0.5575   -1.8336 H   0  0  0  0  0  0  0  0  0  0  0  0
   -0.2496   -0.5477   -1.6097 H   0  0  0  0  0  0  0  0  0  0  0  0
    0.1634    1.0309   -2.2270 H   0  0  0  0  0  0  0  0  0  0  0  0
    0.2761    1.5311    0.4868 H   0  0  0  0  0  0  0  0  0  0  0  0
   -0.9917    2.0306   -0.6155 H   0  0  0  0  0  0  0  0  0  0  0  0
  1  2  1  0
  2  3  1  0
  3  4  1  0
  4  5  1  0
  5  6  1  0
  6  7  1  0
  7  8  1  0
  8  9  1  0
  9 10  1  0
 10 11  1  0
 11 12  1  0
 12 13  1  0
 13 14  1  0
 14 15  1  0
 15 16  1  0
 16 17  1  0
 17 18  1  0
 18 19  1  0
 19 20  1  0
 13 21  1  0
 21 22  1  0
 22 23  1  0
  9  1  1  0
 23  1  1  0
 21 20  1  0
  1 24  1  0
  2 25  1  0
  2 26  1  0
  3 27  1  0
  3 28  1  0
  4 29  1  0
  4 30  1  0
  5 31  1  0
  5 32  1  0
  6 33  1  0
  6 34  1  0
  7 35  1  0
  7 36  1  0
  8 37  1  0
  8 38  1  0
  9 39  1  0
 10 40  1  0
 10 41  1  0
 11 42  1  0
 11 43  1  0
 12 44  1  0
 12 45  1  0
 13 46  1  0
 14 47  1  0
 14 48  1  0
 15 49  1  0
 15 50  1  0
 16 51  1  0
 16 52  1  0
 17 53  1  0
 17 54  1  0
 18 55  1  0
 18 56  1  0
 19 57  1  0
 19 58  1  0
 20 59  1  0
 20 60  1  0
 21 61  1  0
 22 62  1  0
 22 63  1  0
 23 64  1  0
 23 65  1  0
M  END
