
     RDKit          3D

 24 24  0  0  0  0  0  0  0  0999 V2000
    2.7353    0.0302    0.0320 C   0  0  0  0  0  0  0  0  0  0  0  0
    1.4600    0.3928    0.7822 C   0  0  0  0  0  0  0  0  0  0  0  0
    0.3222    0.0845   -0.1305 C   0  0  2  0  0  0  0  0  0  0  0  0
   -1.0343    0.3985    0.4222 C   0  0  1  0  0  0  0  0  0  0  0  0
   -1.2882    1.8512    0.6645 C   0  0  0  0  0  0  0  0  0  0  0  0
   -1.8789   -0.1646   -0.7147 C   0  0  0  0  0  0  0  0  0  0  0  0
   -1.2016   -1.5089   -0.9257 C   0  0  0  0  0  0  0  0  0  0  0  0
    0.1559   -1.4250   -0.2806 C   0  0  0  0  0  0  0  0  0  0  0  0
    2.7438    0.5751   -0.9206 H   0  0  0  0  0  0  0  0  0  0  0  0
    3.6207    0.2787    0.6378 H   0  0  0  0  0  0  0  0  0  0  0  0
    2.7339   -1.0652   -0.1680 H   0  0  0  0  0  0  0  0  0  0  0  0
    1.5001    1.4654    1.0142 H   0  0  0  0  0  0  0  0  0  0  0  0
    1.4182   -0.2067    1.7071 H   0  0  0  0  0  0  0  0  0  0  0  0
    0.4817    0.5252   -1.1257 H   0  0  0  0  0  0  0  0  0  0  0  0
   -1.2246   -0.2340    1.3022 H   0  0  0  0  0  0  0  0  0  0  0  0
   -0.5845    2.1959    1.4309 H   0  0  0  0  0  0  0  0  0  0  0  0
   -1.2489    2.4025   -0.2834 H   0  0  0  0  0  0  0  0  0  0  0  0
   -2.3093    1.9202    1.1187 H   0  0  0  0  0  0  0  0  0  0  0  0
   -2.9402   -0.2471   -0.4628 H   0  0  0  0  0  0  0  0  0  0  0  0
   -1.6755    0.4791   -1.6022 H   0  0  0  0  0  0  0  0  0  0  0  0
   -1.0866   -1.7302   -2.0018 H   0  0  0  0  0  0  0  0  0  0  0  0
   -1.7668   -2.3097   -0.3944 H   0  0  0  0  0  0  0  0  0  0  0  0
    0.1071   -1.8194    0.7575 H   0  0  0  0  0  0  0  0  0  0  0  0
    0.9604   -1.8882   -0.8590 H   0  0  0  0  0  0  0  0  0  0  0  0
  1  2  1  0
  2  3  1  0
  3  4  1  0
  4  5  1  0
  4  6  1  0
  6  7  1  0
  7  8  1  0
  8  3  1  0
  1  9  1  0
  1 10  1  0
  1 11  1  0
  2 12  1  0
  2 13  1  0
  3 14  1  6
  4 15  1  1
  5 16  1  0
  5 17  1  0
  5 18  1  0
  6 19  1  0
  6 20  1  0
  7 21  1  0
  7 22  1  0
  8 23  1  0
  8 24  1  0
M  END
