
     RDKit          3D

 33 35  0  0  0  0  0  0  0  0999 V2000
   -2.1183    0.5945    0.7559 C   0  0  1  0  0  0  0  0  0  0  0  0
   -1.4170    0.2305    1.8631 O   0  0  0  0  0  0  0  0  0  0  0  0
   -0.1149    0.7279    1.6953 C   0  0  0  0  0  0  0  0  0  0  0  0
    0.6563   -0.2717    0.8440 C   0  0  0  0  0  0  0  0  0  0  0  0
    1.7559    0.3902    0.0497 C   0  0  0  0  0  0  0  0  0  0  0  0
    3.0482   -0.3847    0.2354 C   0  0  0  0  0  0  0  0  0  0  0  0
    4.3599    0.2974    0.1381 C   0  0  0  0  0  0  0  0  0  0  0  0
    3.9196   -0.5062   -1.0387 C   0  0  0  0  0  0  0  0  0  0  0  0
   -0.3663   -0.8843   -0.1062 C   0  0  0  0  0  0  0  0  0  0  0  0
   -1.3332    0.2176   -0.4705 C   0  0  1  0  0  0  0  0  0  0  0  0
   -2.3245   -0.2966   -1.4838 C   0  0  1  0  0  0  0  0  0  0  0  0
   -2.4127   -2.0810   -1.4574 Cl  0  0  0  0  0  0  0  0  0  0  0  0
   -3.6522    0.1979   -0.9194 C   0  0  0  0  0  0  0  0  0  0  0  0
   -3.4209   -0.1171    0.5549 C   0  0  0  0  0  0  0  0  0  0  0  0
   -2.3134    1.6702    0.7838 H   0  0  0  0  0  0  0  0  0  0  0  0
   -0.2071    1.7039    1.1532 H   0  0  0  0  0  0  0  0  0  0  0  0
    0.3515    0.8993    2.6753 H   0  0  0  0  0  0  0  0  0  0  0  0
    1.0685   -1.0373    1.5294 H   0  0  0  0  0  0  0  0  0  0  0  0
    1.8943    1.4645    0.3238 H   0  0  0  0  0  0  0  0  0  0  0  0
    1.4963    0.3591   -1.0390 H   0  0  0  0  0  0  0  0  0  0  0  0
    3.0241   -1.2612    0.9118 H   0  0  0  0  0  0  0  0  0  0  0  0
    5.2201   -0.1128    0.6856 H   0  0  0  0  0  0  0  0  0  0  0  0
    4.3276    1.4084    0.0314 H   0  0  0  0  0  0  0  0  0  0  0  0
    3.5462    0.0601   -1.9287 H   0  0  0  0  0  0  0  0  0  0  0  0
    4.3114   -1.5163   -1.2329 H   0  0  0  0  0  0  0  0  0  0  0  0
    0.1739   -1.1917   -1.0346 H   0  0  0  0  0  0  0  0  0  0  0  0
   -0.8736   -1.7564    0.3333 H   0  0  0  0  0  0  0  0  0  0  0  0
   -0.7657    1.0932   -0.8116 H   0  0  0  0  0  0  0  0  0  0  0  0
   -2.1214    0.0952   -2.4909 H   0  0  0  0  0  0  0  0  0  0  0  0
   -3.7081    1.3051   -1.0224 H   0  0  0  0  0  0  0  0  0  0  0  0
   -4.5165   -0.3300   -1.3375 H   0  0  0  0  0  0  0  0  0  0  0  0
   -3.2586   -1.2159    0.6103 H   0  0  0  0  0  0  0  0  0  0  0  0
   -4.2293    0.2483    1.1989 H   0  0  0  0  0  0  0  0  0  0  0  0
  1  2  1  0
  2  3  1  0
  3  4  1  0
  4  5  1  0
  5  6  1  0
  6  7  1  0
  7  8  1  0
  4  9  1  0
  1 10  1  0
 10 11  1  0
 11 12  1  0
 11 13  1  0
 13 14  1  0
 14  1  1  0
  8  6  1  0
 10  9  1  0
  1 15  1  1
  3 16  1  0
  3 17  1  0
  4 18  1  0
  5 19  1  0
  5 20  1  0
  6 21  1  0
  7 22  1  0
  7 23  1  0
  8 24  1  0
  8 25  1  0
  9 26  1  0
  9 27  1  0
 10 28  1  6
 11 29  1  6
 13 30  1  0
 13 31  1  0
 14 32  1  0
 14 33  1  0
M  END
