1TPS
                    3D
 Structure written by MMmdl.
144146  0  0  1  0            999 V2000
   23.0880    0.0260   33.5880 C   0  0  0  0  0  0
   23.4920    0.4240   35.0090 C   0  0  1  0  0  0
   22.3140    0.8040   35.7780 N   0  0  0  0  0  0
   21.9350    2.0720   35.8740 C   0  0  0  0  0  0
   20.5560    2.3260   36.4620 C   0  0  1  0  0  0
   20.3270    1.5240   37.6610 N   0  0  0  0  0  0
   19.2380    0.7730   37.8350 C   0  0  0  0  0  0
   18.2040    0.7150   36.6950 C   0  0  1  0  0  0
   18.4460   -0.3350   35.6820 N   0  0  0  0  0  0
   18.4760    0.0690   34.3900 C   0  0  0  0  0  0
   18.6200   -0.9990   33.3170 C   0  0  1  0  0  0
   19.3800   -0.4500   32.1950 N   0  0  0  0  0  0
   18.7640   -0.0100   31.1020 C   0  0  0  0  0  0
   19.6070    0.8360   30.1490 C   0  0  1  0  0  0
   20.9850    0.3800   30.0940 N   0  0  0  0  0  0
   21.9300    1.1170   30.6610 C   0  0  0  0  0  0
   23.3770    0.7190   30.3720 C   0  0  2  0  0  0
   23.8080   -0.4110   31.3370 C   0  0  2  0  0  0
   24.0010    0.1170   32.6640 O   0  0  0  0  0  0
   24.2220    1.8980   30.4860 N   0  0  0  0  0  0
   24.1200    2.8970   29.6150 C   0  0  0  0  0  0
   25.0950    4.0480   29.7760 C   0  0  2  0  0  0
   24.3620    5.3090   29.7150 N   0  0  0  0  0  0
   24.3270    6.1570   30.7320 C   0  0  0  0  0  0
   23.4840    7.4050   30.5390 C   0  0  1  0  0  0
   24.3920    8.6190   30.3360 C   0  0  0  0  0  0
   21.9420   -0.3600   33.3400 O   0  0  0  0  0  0
   24.2690   -0.7360   35.6870 C   0  0  0  0  0  0
   24.4890   -0.4150   37.1520 C   0  0  0  0  0  0
   23.5300   -2.0490   35.5410 C   0  0  0  0  0  0
   22.6540    3.0140   35.5330 O   0  0  0  0  0  0
   19.0310    0.1500   38.8790 O   0  0  0  0  0  0
   18.3720    1.2570   34.0680 O   0  0  0  0  0  0
   17.5880   -0.2740   30.8580 O   0  0  0  0  0  0
   21.6650    2.1150   31.3460 O   0  0  0  0  0  0
   20.4040    3.8160   36.7810 C   0  0  0  0  0  0
   18.9780    4.2270   37.0370 C   0  0  0  0  0  0
   18.3760    4.0160   38.2820 C   0  0  0  0  0  0
   17.0400    4.3600   38.5000 C   0  0  0  0  0  0
   16.3030    4.9200   37.4620 C   0  0  0  0  0  0
   14.9940    5.3040   37.6460 O   0  0  0  0  0  0
   16.8880    5.1360   36.2250 C   0  0  0  0  0  0
   18.2150    4.7890   36.0210 C   0  0  0  0  0  0
   21.3470    1.5860   38.7070 C   0  0  0  0  0  0
   16.8210    0.3710   37.2680 C   0  0  0  0  0  0
   15.5360    0.3760   36.4360 C   0  0  0  0  0  0
   14.3640    0.1840   37.3900 C   0  0  0  0  0  0
   15.3790    1.6710   35.6820 C   0  0  0  0  0  0
   19.2820   -2.2590   33.8680 C   0  0  0  0  0  0
   18.7160   -2.6380   35.2110 C   0  0  0  0  0  0
   18.9750   -1.5760   36.2820 C   0  0  1  0  0  0
   20.3930   -1.4680   36.4560 O   0  0  0  0  0  0
   19.0220    0.8990   28.7360 C   0  0  0  0  0  0
   19.5990    2.0650   27.9660 C   0  0  0  0  0  0
   19.2920    2.0710   26.4780 C   0  0  0  0  0  0
   19.7210    3.3560   25.9240 N   0  0  0  0  0  0
   19.4860    3.7790   24.6820 C   0  0  0  0  0  0
   18.8130    3.0220   23.8230 N   0  3  0  0  0  0
   19.8790    4.9940   24.3190 N   0  0  0  0  0  0
   25.1070   -1.0790   30.8680 C   0  0  0  0  0  0
   23.2980    2.9100   28.6980 O   0  0  0  0  0  0
   26.1320    3.9880   28.6540 C   0  0  0  0  0  0
   27.2110    5.0660   28.7160 C   0  0  0  0  0  0
   28.1740    4.7360   29.8360 C   0  0  0  0  0  0
   27.9420    5.1880   27.3860 C   0  0  0  0  0  0
   24.9590    5.9770   31.7720 O   0  0  0  0  0  0
   22.7010    7.2020   29.3670 O   0  0  0  0  0  0
   25.2710    8.2920   29.2130 O   0  0  0  0  0  0
   26.4760    9.2450   28.8840 S   0  0  0  0  0  0
   25.8690   10.5700   28.5560 O   0  0  0  0  0  0
   27.3810    9.3390   30.0600 O   0  0  0  0  0  0
   27.2430    8.6810   27.7130 O   0  5  0  0  0  0
   24.1125    1.3320   34.9890 H   0  0  0  0  0  0
   21.7208    0.0335   36.2923 H   0  0  0  0  0  0
   19.7891    1.9925   35.7474 H   0  0  0  0  0  0
   18.2818    1.6869   36.1858 H   0  0  0  0  0  0
   17.6291   -1.2758   32.9278 H   0  0  0  0  0  0
   20.4774   -0.3966   32.2477 H   0  0  0  0  0  0
   19.6480    1.8510   30.5709 H   0  0  0  0  0  0
   21.2320   -0.5645   29.5871 H   0  0  0  0  0  0
   23.5068    0.3797   29.3337 H   0  0  0  0  0  0
   23.0059   -1.1594   31.4179 H   0  0  0  0  0  0
   24.9573    1.9710   31.3009 H   0  0  0  0  0  0
   25.5861    4.0114   30.7596 H   0  0  0  0  0  0
   23.8134    5.5826   28.8017 H   0  0  0  0  0  0
   22.7953    7.5736   31.3800 H   0  0  0  0  0  0
   23.7773    9.5032   30.1115 H   0  0  0  0  0  0
   24.9731    8.7996   31.2523 H   0  0  0  0  0  0
   25.2484   -0.8630   35.2026 H   0  0  0  0  0  0
   25.0398   -1.2390   37.6292 H   0  0  0  0  0  0
   23.5163   -0.2876   37.6495 H   0  0  0  0  0  0
   25.0706    0.5145   37.2404 H   0  0  0  0  0  0
   24.1044   -2.8494   36.0304 H   0  0  0  0  0  0
   23.4088   -2.2848   34.4734 H   0  0  0  0  0  0
   22.5399   -1.9669   36.0131 H   0  0  0  0  0  0
   20.9861    4.0593   37.6821 H   0  0  0  0  0  0
   20.7738    4.4120   35.9336 H   0  0  0  0  0  0
   18.9454    3.5817   39.0905 H   0  0  0  0  0  0
   16.5896    4.1904   39.4668 H   0  0  0  0  0  0
   14.4279    5.7451   36.8124 H   0  0  0  0  0  0
   16.3109    5.5732   35.4237 H   0  0  0  0  0  0
   18.6537    4.9634   35.0496 H   0  0  0  0  0  0
   21.0510    0.9398   39.5465 H   0  0  0  0  0  0
   21.4475    2.6229   39.0602 H   0  0  0  0  0  0
   22.3098    1.2420   38.3011 H   0  0  0  0  0  0
   16.8335   -0.6547   37.6653 H   0  0  0  0  0  0
   16.5738    1.0745   38.0767 H   0  0  0  0  0  0
   15.5681   -0.4252   35.6830 H   0  0  0  0  0  0
   13.4234    0.1832   36.8197 H   0  0  0  0  0  0
   14.3485    1.0052   38.1217 H   0  0  0  0  0  0
   14.4739   -0.7750   37.9174 H   0  0  0  0  0  0
   14.4488    1.6433   35.0955 H   0  0  0  0  0  0
   16.2353    1.8073   35.0052 H   0  0  0  0  0  0
   15.3382    2.5077   36.3949 H   0  0  0  0  0  0
   19.1161   -3.0946   33.1721 H   0  0  0  0  0  0
   20.3623   -2.0857   33.9820 H   0  0  0  0  0  0
   17.6275   -2.7719   35.1256 H   0  0  0  0  0  0
   19.1755   -3.5780   35.5506 H   0  0  0  0  0  0
   18.5548   -1.7674   37.2804 H   0  0  0  0  0  0
   20.9588   -2.3042   36.8926 H   0  0  0  0  0  0
   19.2588   -0.0316   28.1993 H   0  0  0  0  0  0
   17.9303    1.0200   28.7962 H   0  0  0  0  0  0
   19.2001    3.0061   28.3724 H   0  0  0  0  0  0
   20.6949    2.0603   28.0602 H   0  0  0  0  0  0
   19.8353    1.2494   25.9882 H   0  0  0  0  0  0
   18.2108    1.9375   26.3261 H   0  0  0  0  0  0
   20.2869    4.0628   26.5486 H   0  0  0  0  0  0
   18.6260    3.3831   22.8009 H   0  0  0  0  0  0
   19.6890    5.3508   23.2960 H   0  0  0  0  0  0
   20.3947    5.6439   25.0413 H   0  0  0  0  0  0
   25.3852   -1.8756   31.5738 H   0  0  0  0  0  0
   25.9106   -0.3290   30.8262 H   0  0  0  0  0  0
   24.9566   -1.5114   29.8678 H   0  0  0  0  0  0
   26.6518    3.0191   28.6866 H   0  0  0  0  0  0
   25.6283    4.1013   27.6827 H   0  0  0  0  0  0
   26.7448    6.0408   28.9222 H   0  0  0  0  0  0
   28.9553    5.5087   29.8874 H   0  0  0  0  0  0
   28.6382    3.7574   29.6440 H   0  0  0  0  0  0
   27.6284    4.7021   30.7906 H   0  0  0  0  0  0
   28.7115    5.9704   27.4610 H   0  0  0  0  0  0
   27.2242    5.4542   26.5962 H   0  0  0  0  0  0
   28.4184    4.2275   27.1400 H   0  0  0  0  0  0
   22.0058    7.9840   29.0277 H   0  0  0  0  0  0
   18.4426    2.0339   24.1336 H   0  0  0  0  0  0
  1  2  1  0  0  0
  1 19  1  0  0  0
  1 27  2  0  0  0
  2  3  1  0  0  0
  2 28  1  0  0  0
  2 73  1  0  0  0
  3  4  1  0  0  0
  3 74  1  0  0  0
  4  5  1  0  0  0
  4 31  2  0  0  0
  5  6  1  0  0  0
  5 36  1  0  0  0
  5 75  1  0  0  0
  6  7  1  0  0  0
  6 44  1  0  0  0
  7  8  1  0  0  0
  7 32  2  0  0  0
  8  9  1  0  0  0
  8 45  1  0  0  0
  8 76  1  0  0  0
  9 10  1  0  0  0
  9 51  1  0  0  0
 10 11  1  0  0  0
 10 33  2  0  0  0
 11 12  1  0  0  0
 11 49  1  0  0  0
 11 77  1  0  0  0
 12 13  1  0  0  0
 12 78  1  0  0  0
 13 14  1  0  0  0
 13 34  2  0  0  0
 14 15  1  0  0  0
 14 53  1  0  0  0
 14 79  1  0  0  0
 15 16  1  0  0  0
 15 80  1  0  0  0
 16 17  1  0  0  0
 16 35  2  0  0  0
 17 18  1  0  0  0
 17 20  1  0  0  0
 17 81  1  0  0  0
 18 19  1  0  0  0
 18 60  1  0  0  0
 18 82  1  0  0  0
 20 21  1  0  0  0
 20 83  1  0  0  0
 21 22  1  0  0  0
 21 61  2  0  0  0
 22 23  1  0  0  0
 22 62  1  0  0  0
 22 84  1  0  0  0
 23 24  1  0  0  0
 23 85  1  0  0  0
 24 25  1  0  0  0
 24 66  2  0  0  0
 25 26  1  0  0  0
 25 67  1  0  0  0
 25 86  1  0  0  0
 26 68  1  0  0  0
 26 87  1  0  0  0
 26 88  1  0  0  0
 28 29  1  0  0  0
 28 30  1  0  0  0
 28 89  1  0  0  0
 29 90  1  0  0  0
 29 91  1  0  0  0
 29 92  1  0  0  0
 30 93  1  0  0  0
 30 94  1  0  0  0
 30 95  1  0  0  0
 36 37  1  0  0  0
 36 96  1  0  0  0
 36 97  1  0  0  0
 37 38  1  0  0  0
 37 43  2  0  0  0
 38 39  2  0  0  0
 38 98  1  0  0  0
 39 40  1  0  0  0
 39 99  1  0  0  0
 40 41  1  0  0  0
 40 42  2  0  0  0
 41100  1  0  0  0
 42 43  1  0  0  0
 42101  1  0  0  0
 43102  1  0  0  0
 44103  1  0  0  0
 44104  1  0  0  0
 44105  1  0  0  0
 45 46  1  0  0  0
 45106  1  0  0  0
 45107  1  0  0  0
 46 47  1  0  0  0
 46 48  1  0  0  0
 46108  1  0  0  0
 47109  1  0  0  0
 47110  1  0  0  0
 47111  1  0  0  0
 48112  1  0  0  0
 48113  1  0  0  0
 48114  1  0  0  0
 49 50  1  0  0  0
 49115  1  0  0  0
 49116  1  0  0  0
 50 51  1  0  0  0
 50117  1  0  0  0
 50118  1  0  0  0
 51 52  1  0  0  0
 51119  1  0  0  0
 52120  1  0  0  0
 53 54  1  0  0  0
 53121  1  0  0  0
 53122  1  0  0  0
 54 55  1  0  0  0
 54123  1  0  0  0
 54124  1  0  0  0
 55 56  1  0  0  0
 55125  1  0  0  0
 55126  1  0  0  0
 56 57  1  0  0  0
 56127  1  0  0  0
 57 58  2  0  0  0
 57 59  1  0  0  0
 58128  1  0  0  0
 58144  1  0  0  0
 59129  1  0  0  0
 59130  1  0  0  0
 60131  1  0  0  0
 60132  1  0  0  0
 60133  1  0  0  0
 62 63  1  0  0  0
 62134  1  0  0  0
 62135  1  0  0  0
 63 64  1  0  0  0
 63 65  1  0  0  0
 63136  1  0  0  0
 64137  1  0  0  0
 64138  1  0  0  0
 64139  1  0  0  0
 65140  1  0  0  0
 65141  1  0  0  0
 65142  1  0  0  0
 67143  1  0  0  0
 68 69  1  0  0  0
 69 70  2  0  0  0
 69 71  2  0  0  0
 69 72  1  0  0  0
M  CHG  2  58   1  72  -1
M  END
