1QZ6
                    3D
 Structure written by MMmdl.
123126  0  0  1  0            999 V2000
   25.7294   68.8019   51.1438 O   0  0  0  0  0  0
   24.6244   69.3739   51.0578 C   0  0  0  0  0  0
   23.9264   69.7079   49.9068 N   0  0  0  0  0  0
   24.4754   69.2529   48.6368 C   0  0  0  0  0  0
   22.6854   70.3699   49.9568 C   0  0  0  0  0  0
   21.8934   70.6749   48.9038 C   0  0  0  0  0  0
   20.5864   71.3789   49.1048 C   0  0  0  0  0  0
   19.3734   70.4369   48.9388 C   0  0  1  0  0  0
   19.3594   69.9929   47.5938 O   0  0  0  0  0  0
   18.8634   70.8119   46.5528 C   0  0  0  0  0  0
   19.4384   69.1579   49.7558 C   0  0  1  0  0  0
   19.3074   69.4469   51.2328 C   0  0  0  0  0  0
   18.2654   68.2859   49.3348 C   0  0  0  0  0  0
   17.0884   68.6729   49.3928 O   0  0  0  0  0  0
   18.5844   66.9249   48.8598 C   0  0  0  0  0  0
   17.4024   66.0979   48.3978 C   0  0  0  0  0  0
   17.7334   64.6599   48.0188 C   0  0  2  0  0  0
   18.5944   64.5919   46.7668 C   0  0  0  0  0  0
   16.5034   63.7379   47.9588 C   0  0  1  0  0  0
   15.9084   63.5969   49.2588 O   0  0  0  0  0  0
   16.5604   62.6259   50.1208 C   0  0  0  0  0  0
   15.5034   64.2569   46.9288 C   0  0  0  0  0  0
   14.3714   63.2589   46.7698 C   0  0  2  0  0  0
   14.9864   62.0589   46.2588 O   0  0  0  0  0  0
   14.8974   60.9569   47.0068 C   0  0  0  0  0  0
   14.2834   60.8499   48.0738 O   0  0  0  0  0  0
   15.5944   59.7199   46.4898 C   0  0  0  0  0  0
   14.8034   58.4459   46.6618 C   0  0  1  0  0  0
   13.6904   58.5889   45.7828 O   0  0  0  0  0  0
   15.6264   57.1769   46.4378 C   0  0  0  0  0  0
   15.1604   55.7899   46.8818 C   0  0  2  0  0  0
   14.8884   55.7949   48.2898 O   0  0  0  0  0  0
   15.8674   54.7069   46.1498 C   0  0  0  0  0  0
   13.3994   63.6949   45.6598 C   0  0  2  0  0  0
   12.9004   65.0909   45.9388 C   0  0  0  0  0  0
   12.2954   62.6459   45.4008 C   0  0  0  0  0  0
   11.7744   62.6709   43.9588 C   0  0  0  0  0  0
   12.7964   62.0349   43.1028 C   0  0  0  0  0  0
   13.3904   62.6159   42.0538 C   0  0  0  0  0  0
   14.3904   61.9939   41.2168 C   0  0  0  0  0  0
   15.0054   62.8399   40.2458 O   0  0  0  0  0  0
   15.9174   62.0229   39.6358 C   0  0  0  0  0  0
   14.7574   60.7099   41.2318 N   0  0  0  0  0  0
   15.7254   60.7919   40.2058 C   0  0  0  0  0  0
   16.4464   59.5659   40.0968 C   0  0  0  0  0  0
   16.4314   58.3499   40.6218 N   0  0  0  0  0  0
   17.6014   59.7099   39.2898 O   0  0  0  0  0  0
   18.2464   58.5059   39.4198 C   0  0  0  0  0  0
   17.5314   57.5969   40.1788 C   0  0  0  0  0  0
   17.7004   56.3109   40.7158 C   0  0  0  0  0  0
   16.9524   55.5499   41.4858 N   0  0  0  0  0  0
   18.9324   55.6889   40.4788 O   0  0  0  0  0  0
   18.8524   54.4859   41.1198 C   0  0  0  0  0  0
   17.6234   54.3689   41.7788 C   0  0  0  0  0  0
   17.0354   53.2629   42.5888 C   0  0  1  0  0  0
   17.6754   52.1259   42.0268 O   0  0  0  0  0  0
   17.2554   51.6499   40.7468 C   0  0  0  0  0  0
   17.1734   53.5789   44.0728 C   0  0  1  0  0  0
   18.5674   53.8289   44.6128 C   0  0  0  0  0  0
   16.1254   54.4659   44.6908 C   0  0  0  0  0  0
   15.3394   55.0329   43.9278 O   0  0  0  0  0  0
   24.0885   69.6751   51.9700 H   0  0  0  0  0  0
   23.8245   69.5867   47.8153 H   0  0  0  0  0  0
   24.5339   68.1545   48.6352 H   0  0  0  0  0  0
   25.4825   69.6740   48.5008 H   0  0  0  0  0  0
   22.3754   70.6444   50.9759 H   0  0  0  0  0  0
   22.2063   70.4059   47.8842 H   0  0  0  0  0  0
   20.5498   71.8014   50.1198 H   0  0  0  0  0  0
   20.4889   72.1888   48.3668 H   0  0  0  0  0  0
   18.4643   70.9987   49.1992 H   0  0  0  0  0  0
   18.9448   70.2770   45.5951 H   0  0  0  0  0  0
   19.4512   71.7406   46.5052 H   0  0  0  0  0  0
   17.8087   71.0552   46.7486 H   0  0  0  0  0  0
   20.4073   68.6654   49.5867 H   0  0  0  0  0  0
   19.3581   68.5039   51.7968 H   0  0  0  0  0  0
   18.3425   69.9385   51.4261 H   0  0  0  0  0  0
   20.1264   70.1089   51.5509 H   0  0  0  0  0  0
   19.2714   66.9873   48.0030 H   0  0  0  0  0  0
   19.0612   66.3557   49.6714 H   0  0  0  0  0  0
   16.6533   66.0480   49.2017 H   0  0  0  0  0  0
   16.9545   66.5638   47.5077 H   0  0  0  0  0  0
   18.3497   64.2655   48.8402 H   0  0  0  0  0  0
   18.8107   63.5404   46.5273 H   0  0  0  0  0  0
   19.5380   65.1299   46.9410 H   0  0  0  0  0  0
   18.0573   65.0564   45.9267 H   0  0  0  0  0  0
   16.7923   62.7092   47.6977 H   0  0  0  0  0  0
   16.0392   62.5866   51.0887 H   0  0  0  0  0  0
   17.6078   62.9220   50.2801 H   0  0  0  0  0  0
   16.5279   61.6341   49.6462 H   0  0  0  0  0  0
   15.0957   65.2210   47.2670 H   0  0  0  0  0  0
   16.0099   64.3920   45.9617 H   0  0  0  0  0  0
   13.8613   63.1049   47.7321 H   0  0  0  0  0  0
   15.7929   59.8336   45.4138 H   0  0  0  0  0  0
   16.5454   59.5839   47.0256 H   0  0  0  0  0  0
   14.4035   58.3278   47.6797 H   0  0  0  0  0  0
   12.9403   57.7876   45.7103 H   0  0  0  0  0  0
   15.7936   57.0338   45.3600 H   0  0  0  0  0  0
   16.5954   57.2732   46.9495 H   0  0  0  0  0  0
   14.1495   55.4432   46.6215 H   0  0  0  0  0  0
   14.5407   54.8769   48.7861 H   0  0  0  0  0  0
   16.9163   54.6661   46.4789 H   0  0  0  0  0  0
   15.3796   53.7436   46.3595 H   0  0  0  0  0  0
   13.9345   63.7704   44.7017 H   0  0  0  0  0  0
   12.2061   65.3981   45.1428 H   0  0  0  0  0  0
   13.7528   65.7856   45.9701 H   0  0  0  0  0  0
   12.3785   65.1071   46.9070 H   0  0  0  0  0  0
   12.6934   61.6391   45.5957 H   0  0  0  0  0  0
   11.4426   62.8387   46.0683 H   0  0  0  0  0  0
   10.8269   62.1151   43.9016 H   0  0  0  0  0  0
   11.6079   63.7126   43.6471 H   0  0  0  0  0  0
   13.0608   61.0048   43.3836 H   0  0  0  0  0  0
   13.1258   63.6460   41.7728 H   0  0  0  0  0  0
   16.6734   62.1541   38.8757 H   0  0  0  0  0  0
   19.2042   58.2281   39.0051 H   0  0  0  0  0  0
   19.5714   53.6816   41.1710 H   0  0  0  0  0  0
   15.9621   53.0390   42.5008 H   0  0  0  0  0  0
   17.8539   50.7700   40.4684 H   0  0  0  0  0  0
   17.3970   52.4419   39.9966 H   0  0  0  0  0  0
   16.1921   51.3715   40.7900 H   0  0  0  0  0  0
   16.9213   52.5838   44.4680 H   0  0  0  0  0  0
   18.5104   54.0426   45.6904 H   0  0  0  0  0  0
   19.0138   54.6887   44.0917 H   0  0  0  0  0  0
   19.1898   52.9370   44.4483 H   0  0  0  0  0  0
  1  2  2  0  0  0
  2  3  1  0  0  0
  2 62  1  0  0  0
  3  4  1  0  0  0
  3  5  1  0  0  0
  4 63  1  0  0  0
  4 64  1  0  0  0
  4 65  1  0  0  0
  5  6  2  0  0  0
  5 66  1  0  0  0
  6  7  1  0  0  0
  6 67  1  0  0  0
  7  8  1  0  0  0
  7 68  1  0  0  0
  7 69  1  0  0  0
  8  9  1  0  0  0
  8 11  1  0  0  0
  8 70  1  0  0  0
  9 10  1  0  0  0
 10 71  1  0  0  0
 10 72  1  0  0  0
 10 73  1  0  0  0
 11 12  1  0  0  0
 11 13  1  0  0  0
 11 74  1  0  0  0
 12 75  1  0  0  0
 12 76  1  0  0  0
 12 77  1  0  0  0
 13 14  2  0  0  0
 13 15  1  0  0  0
 15 16  1  0  0  0
 15 78  1  0  0  0
 15 79  1  0  0  0
 16 17  1  0  0  0
 16 80  1  0  0  0
 16 81  1  0  0  0
 17 18  1  0  0  0
 17 19  1  0  0  0
 17 82  1  0  0  0
 18 83  1  0  0  0
 18 84  1  0  0  0
 18 85  1  0  0  0
 19 20  1  0  0  0
 19 22  1  0  0  0
 19 86  1  0  0  0
 20 21  1  0  0  0
 21 87  1  0  0  0
 21 88  1  0  0  0
 21 89  1  0  0  0
 22 23  1  0  0  0
 22 90  1  0  0  0
 22 91  1  0  0  0
 23 24  1  0  0  0
 23 34  1  0  0  0
 23 92  1  0  0  0
 24 25  1  0  0  0
 25 26  2  0  0  0
 25 27  1  0  0  0
 27 28  1  0  0  0
 27 93  1  0  0  0
 27 94  1  0  0  0
 28 29  1  0  0  0
 28 30  1  0  0  0
 28 95  1  0  0  0
 29 96  1  0  0  0
 30 31  1  0  0  0
 30 97  1  0  0  0
 30 98  1  0  0  0
 31 32  1  0  0  0
 31 33  1  0  0  0
 31 99  1  0  0  0
 32100  1  0  0  0
 33 60  1  0  0  0
 33101  1  0  0  0
 33102  1  0  0  0
 34 35  1  0  0  0
 34 36  1  0  0  0
 34103  1  0  0  0
 35104  1  0  0  0
 35105  1  0  0  0
 35106  1  0  0  0
 36 37  1  0  0  0
 36107  1  0  0  0
 36108  1  0  0  0
 37 38  1  0  0  0
 37109  1  0  0  0
 37110  1  0  0  0
 38 39  2  0  0  0
 38111  1  0  0  0
 39 40  1  0  0  0
 39112  1  0  0  0
 40 41  1  0  0  0
 40 43  2  0  0  0
 41 42  1  0  0  0
 42 44  2  0  0  0
 42113  1  0  0  0
 43 44  1  0  0  0
 44 45  1  0  0  0
 45 46  2  0  0  0
 45 47  1  0  0  0
 46 49  1  0  0  0
 47 48  1  0  0  0
 48 49  2  0  0  0
 48114  1  0  0  0
 49 50  1  0  0  0
 50 51  2  0  0  0
 50 52  1  0  0  0
 51 54  1  0  0  0
 52 53  1  0  0  0
 53 54  2  0  0  0
 53115  1  0  0  0
 54 55  1  0  0  0
 55 56  1  0  0  0
 55 58  1  0  0  0
 55116  1  0  0  0
 56 57  1  0  0  0
 57117  1  0  0  0
 57118  1  0  0  0
 57119  1  0  0  0
 58 59  1  0  0  0
 58 60  1  0  0  0
 58120  1  0  0  0
 59121  1  0  0  0
 59122  1  0  0  0
 59123  1  0  0  0
 60 61  2  0  0  0
M  END
