1BZL
                    3D
 Structure written by MMmdl.
 96 96  0  0  1  0            999 V2000
   26.8630   14.1680   -4.0330 C   0  0  0  0  0  0
   27.5410   13.2940   -5.0980 C   0  0  2  0  0  0
   27.4180   15.2240   -3.6870 O   0  0  0  0  0  0
   25.7810   13.8110   -3.5700 O   0  5  0  0  0  0
   28.2070   12.0430   -4.4600 C   0  0  0  0  0  0
   28.5800   14.1670   -5.7130 N   0  3  0  0  0  0
   27.2490   10.8760   -4.1440 C   0  0  0  0  0  0
   26.4640   10.4510   -5.3540 C   0  0  0  0  0  0
   27.0380   10.1080   -6.3870 O   0  0  0  0  0  0
   25.1670   10.4630   -5.2320 N   0  0  0  0  0  0
   24.2240   10.1150   -6.2860 C   0  0  2  0  0  0
   23.1700   11.2160   -6.2610 C   0  0  0  0  0  0
   22.7040   11.5780   -5.1770 O   0  0  0  0  0  0
   23.5760    8.7480   -6.0050 C   0  0  0  0  0  0
   24.0330    7.3540   -7.1280 S   0  0  0  0  0  0
   22.8040   11.7370   -7.4400 N   0  0  0  0  0  0
   21.8260   12.8110   -7.5260 C   0  0  0  0  0  0
   20.5460   12.6270   -6.7310 C   0  0  0  0  0  0
   20.0420   11.5090   -6.5870 O   0  0  0  0  0  0
   20.0100   13.7480   -6.2230 N   0  0  0  0  0  0
   18.7810   13.8020   -5.4330 C   0  0  0  0  0  0
   18.9760   14.0180   -3.9310 C   0  0  0  0  0  0
   18.9100   12.7070   -3.1660 C   0  0  0  0  0  0
   20.1160   11.7600   -3.2840 C   0  0  0  0  0  0
   18.5890    9.9160   -2.5250 C   0  0  0  0  0  0
   19.7400   10.3410   -3.3330 N   0  3  0  0  0  0
   18.2850    8.4100   -2.5350 C   0  0  0  0  0  0
   19.2690    7.6430   -1.6620 C   0  0  0  0  0  0
   20.1820    6.7060   -2.3140 N   0  0  0  0  0  0
   21.2270    7.0670   -3.0770 C   0  0  0  0  0  0
   23.3800    6.4660   -3.9620 N   0  0  0  0  0  0
   22.0690    5.9430   -3.6450 C   0  0  0  0  0  0
   21.5060    8.2460   -3.3290 O   0  0  0  0  0  0
   24.4840    5.7260   -3.8750 C   0  0  0  0  0  0
   26.7130    6.5340   -3.1490 N   0  0  0  0  0  0
   25.7620    6.4540   -4.2590 C   0  0  1  0  0  0
   24.4980    4.5550   -3.4840 O   0  0  0  0  0  0
   26.3590    5.8090   -5.5010 C   0  0  0  0  0  0
   25.9590    6.7160   -7.0640 S   0  0  0  0  0  0
   28.0030    6.9450   -3.1600 C   0  0  0  0  0  0
   31.4700    4.3090   -1.3180 C   0  0  0  0  0  0
   30.0880    4.9530   -1.2410 C   0  0  2  0  0  0
   32.0810    4.1340   -0.2510 O   0  0  0  0  0  0
   31.9160    3.9550   -2.4110 O   0  5  0  0  0  0
   30.0890    6.3140   -1.8730 C   0  0  0  0  0  0
   29.6910    5.0720    0.1860 N   0  3  0  0  0  0
   28.7220    6.9700   -1.8280 C   0  0  0  0  0  0
   28.6040    7.2440   -4.1900 O   0  0  0  0  0  0
   26.8243   12.9479   -5.8573 H   0  0  0  0  0  0
   28.9698   11.6443   -5.1449 H   0  0  0  0  0  0
   28.6805   12.3250   -3.5080 H   0  0  0  0  0  0
   29.1147   13.6063   -6.4938 H   0  0  0  0  0  0
   29.2928   14.4892   -4.9396 H   0  0  0  0  0  0
   27.8290   10.0114   -3.7888 H   0  0  0  0  0  0
   26.5381   11.1861   -3.3639 H   0  0  0  0  0  0
   24.7973   10.7649   -4.2410 H   0  0  0  0  0  0
   24.7593   10.0572   -7.2452 H   0  0  0  0  0  0
   23.8496    8.4135   -4.9934 H   0  0  0  0  0  0
   22.4822    8.8388   -6.0778 H   0  0  0  0  0  0
   23.2609   11.3345   -8.3561 H   0  0  0  0  0  0
   22.2751   13.7461   -7.1600 H   0  0  0  0  0  0
   21.5136   12.9395   -8.5728 H   0  0  0  0  0  0
   20.5660   14.6722   -6.4391 H   0  0  0  0  0  0
   18.1531   14.6324   -5.7881 H   0  0  0  0  0  0
   18.2326   12.8548   -5.5428 H   0  0  0  0  0  0
   19.9596   14.4765   -3.7512 H   0  0  0  0  0  0
   18.1865   14.6828   -3.5506 H   0  0  0  0  0  0
   18.8051   12.9147   -2.0909 H   0  0  0  0  0  0
   18.0445   12.1233   -3.5128 H   0  0  0  0  0  0
   20.6714   11.9868   -4.2060 H   0  0  0  0  0  0
   20.7763   11.8972   -2.4150 H   0  0  0  0  0  0
   18.7590   10.1883   -1.4729 H   0  0  0  0  0  0
   17.6798   10.4156   -2.8907 H   0  0  0  0  0  0
   19.4873   10.0642   -4.3672 H   0  0  0  0  0  0
   17.2685    8.2386   -2.1513 H   0  0  0  0  0  0
   18.3577    8.0281   -3.5640 H   0  0  0  0  0  0
   19.9205    8.3537   -1.1324 H   0  0  0  0  0  0
   18.7148    7.0377   -0.9295 H   0  0  0  0  0  0
   20.0354    5.6223   -2.1949 H   0  0  0  0  0  0
   23.4912    7.5104   -4.2888 H   0  0  0  0  0  0
   22.1561    5.1379   -2.9005 H   0  0  0  0  0  0
   21.5914    5.5508   -4.5550 H   0  0  0  0  0  0
   26.4036    6.2341   -2.1369 H   0  0  0  0  0  0
   25.5411    7.5117   -4.4651 H   0  0  0  0  0  0
   27.4546    5.7785   -5.4077 H   0  0  0  0  0  0
   25.9713    4.7848   -5.6047 H   0  0  0  0  0  0
   29.3545    4.3311   -1.7751 H   0  0  0  0  0  0
   30.7973    6.9653   -1.3399 H   0  0  0  0  0  0
   30.3915    6.2286   -2.9271 H   0  0  0  0  0  0
   28.6956    5.5354    0.2522 H   0  0  0  0  0  0
   30.4226    5.6969    0.7192 H   0  0  0  0  0  0
   28.8648    8.0127   -1.5080 H   0  0  0  0  0  0
   28.1219    6.4350   -1.0773 H   0  0  0  0  0  0
   28.0995   15.0500   -6.1596 H   0  0  0  0  0  0
   29.6610    4.0718    0.6429 H   0  0  0  0  0  0
   20.5828    9.7261   -2.9844 H   0  0  0  0  0  0
  1  2  1  0  0  0
  1  3  2  0  0  0
  1  4  1  0  0  0
  2  5  1  0  0  0
  2  6  1  0  0  0
  2 49  1  0  0  0
  5  7  1  0  0  0
  5 50  1  0  0  0
  5 51  1  0  0  0
  6 52  1  0  0  0
  6 53  1  0  0  0
  6 94  1  0  0  0
  7  8  1  0  0  0
  7 54  1  0  0  0
  7 55  1  0  0  0
  8  9  2  0  0  0
  8 10  1  0  0  0
 10 11  1  0  0  0
 10 56  1  0  0  0
 11 12  1  0  0  0
 11 14  1  0  0  0
 11 57  1  0  0  0
 12 13  2  0  0  0
 12 16  1  0  0  0
 14 15  1  0  0  0
 14 58  1  0  0  0
 14 59  1  0  0  0
 15 39  1  0  0  0
 16 17  1  0  0  0
 16 60  1  0  0  0
 17 18  1  0  0  0
 17 61  1  0  0  0
 17 62  1  0  0  0
 18 19  2  0  0  0
 18 20  1  0  0  0
 20 21  1  0  0  0
 20 63  1  0  0  0
 21 22  1  0  0  0
 21 64  1  0  0  0
 21 65  1  0  0  0
 22 23  1  0  0  0
 22 66  1  0  0  0
 22 67  1  0  0  0
 23 24  1  0  0  0
 23 68  1  0  0  0
 23 69  1  0  0  0
 24 26  1  0  0  0
 24 70  1  0  0  0
 24 71  1  0  0  0
 25 26  1  0  0  0
 25 27  1  0  0  0
 25 72  1  0  0  0
 25 73  1  0  0  0
 26 74  1  0  0  0
 26 96  1  0  0  0
 27 28  1  0  0  0
 27 75  1  0  0  0
 27 76  1  0  0  0
 28 29  1  0  0  0
 28 77  1  0  0  0
 28 78  1  0  0  0
 29 30  1  0  0  0
 29 79  1  0  0  0
 30 32  1  0  0  0
 30 33  2  0  0  0
 31 32  1  0  0  0
 31 34  1  0  0  0
 31 80  1  0  0  0
 32 81  1  0  0  0
 32 82  1  0  0  0
 34 36  1  0  0  0
 34 37  2  0  0  0
 35 36  1  0  0  0
 35 40  1  0  0  0
 35 83  1  0  0  0
 36 38  1  0  0  0
 36 84  1  0  0  0
 38 39  1  0  0  0
 38 85  1  0  0  0
 38 86  1  0  0  0
 40 47  1  0  0  0
 40 48  2  0  0  0
 41 42  1  0  0  0
 41 43  2  0  0  0
 41 44  1  0  0  0
 42 45  1  0  0  0
 42 46  1  0  0  0
 42 87  1  0  0  0
 45 47  1  0  0  0
 45 88  1  0  0  0
 45 89  1  0  0  0
 46 90  1  0  0  0
 46 91  1  0  0  0
 46 95  1  0  0  0
 47 92  1  0  0  0
 47 93  1  0  0  0
M  CHG  5   4  -1   6   1  26   1  44  -1  46   1
M  END
