1FKD
                    3D
 Structure written by MMmdl.
126129  0  0  1  0            999 V2000
   14.5693   64.0339   47.6081 C   0  0  0  0  0  0
   13.2133   63.3869   47.4341 C   0  0  2  0  0  0
   12.5433   63.3229   48.8441 C   0  0  0  0  0  0
   13.0713   62.1349   49.6621 C   0  0  0  0  0  0
   12.9483   60.7829   48.9751 C   0  0  0  0  0  0
   13.6383   60.8739   47.6231 C   0  0  0  0  0  0
   12.6233   61.9539   45.5671 C   0  0  0  0  0  0
   12.4253   60.6459   44.8881 C   0  0  0  0  0  0
   13.5813   60.1459   43.9281 C   0  0  1  0  0  0
   14.2793   61.2949   43.2631 C   0  0  1  0  0  0
   15.6113   60.8199   42.6741 C   0  0  0  0  0  0
   16.5063   60.0869   43.7641 C   0  0  1  0  0  0
   15.6853   58.9579   44.4611 C   0  0  1  0  0  0
   16.2383   58.1699   45.6511 C   0  0  2  0  0  0
   17.1343   58.9979   46.5831 C   0  0  0  0  0  0
   17.5503   58.2719   47.8931 C   0  0  2  0  0  0
   18.9723   57.5919   47.6331 C   0  0  1  0  0  0
   20.0373   58.6539   47.8151 C   0  0  0  0  0  0
   20.5733   59.2199   46.7101 C   0  0  0  0  0  0
   21.5623   60.3399   46.7601 C   0  0  2  0  0  0
   20.8193   61.6379   46.4691 C   0  0  0  0  0  0
   20.4713   62.4759   47.6781 C   0  0  0  0  0  0
   19.3673   63.4999   47.3701 C   0  0  1  0  0  0
   17.9763   62.8539   47.3381 C   0  0  2  0  0  0
   16.9113   64.0239   47.0401 C   0  0  1  0  0  0
   17.1863   64.7979   45.7661 C   0  0  0  0  0  0
   17.5423   66.0829   45.9971 C   0  0  0  0  0  0
   17.9823   67.0179   44.8991 C   0  0  1  0  0  0
   17.1813   68.3389   45.0171 C   0  0  0  0  0  0
   17.8363   69.4709   44.2391 C   0  0  2  0  0  0
   19.2623   69.6289   44.6811 C   0  0  1  0  0  0
   20.0783   68.3709   44.3681 C   0  0  0  0  0  0
   19.4453   67.3279   45.3101 C   0  0  0  0  0  0
   13.3753   61.8379   42.1291 C   0  0  0  0  0  0
   16.5463   57.1949   48.2361 C   0  0  0  0  0  0
   20.4343   59.1039   49.2471 C   0  0  0  0  0  0
   22.6143   60.1189   45.5751 C   0  0  0  0  0  0
   23.7073   61.1519   45.4811 C   0  0  0  0  0  0
   17.5003   62.1679   48.7121 C   0  0  0  0  0  0
   17.1483   64.0609   44.4701 C   0  0  0  0  0  0
   18.6913   60.6139   43.0391 C   0  0  0  0  0  0
   16.3843   55.9469   44.5971 C   0  0  0  0  0  0
   15.9663   70.7429   43.5701 C   0  0  0  0  0  0
   13.1213   62.0779   46.8221 N   0  0  0  0  0  0
   15.5693   63.3369   47.0011 O   0  0  0  0  0  0
   14.7983   64.9939   48.2921 O   0  0  0  0  0  0
   12.2063   62.9789   44.9061 O   0  0  0  0  0  0
   11.4423   59.9289   45.1061 O   0  0  0  0  0  0
   14.4443   59.6049   44.9731 O   0  0  0  0  0  0
   13.1923   59.0829   43.1531 O   0  0  0  0  0  0
   17.7283   59.5159   43.1851 O   0  0  0  0  0  0
   17.1043   57.1219   45.0281 O   0  0  0  0  0  0
   20.4923   62.0709   45.3261 O   0  0  0  0  0  0
   19.5023   64.4599   48.4571 O   0  0  0  0  0  0
   17.0753   70.7119   44.4601 O   0  0  0  0  0  0
   19.7513   70.7419   43.9671 O   0  0  0  0  0  0
   19.1403   56.6209   48.6801 O   0  0  0  0  0  0
   12.7296   63.9781   46.6426 H   0  0  0  0  0  0
   12.7597   64.2498   49.3953 H   0  0  0  0  0  0
   11.4551   63.2107   48.7283 H   0  0  0  0  0  0
   14.1393   62.2846   49.8787 H   0  0  0  0  0  0
   12.5122   62.0627   50.6067 H   0  0  0  0  0  0
   13.4296   60.0117   49.5945 H   0  0  0  0  0  0
   11.8850   60.5348   48.8415 H   0  0  0  0  0  0
   14.7222   60.9879   47.7716 H   0  0  0  0  0  0
   13.4414   59.9568   47.0485 H   0  0  0  0  0  0
   14.4726   62.0688   44.0206 H   0  0  0  0  0  0
   15.4181   60.1142   41.8527 H   0  0  0  0  0  0
   16.1717   61.6850   42.2902 H   0  0  0  0  0  0
   16.8791   60.8167   44.4978 H   0  0  0  0  0  0
   15.5819   58.1901   43.6802 H   0  0  0  0  0  0
   15.4072   57.7794   46.2568 H   0  0  0  0  0  0
   18.0630   59.2645   46.0574 H   0  0  0  0  0  0
   16.6052   59.9151   46.8809 H   0  0  0  0  0  0
   17.5489   58.9795   48.7353 H   0  0  0  0  0  0
   19.0955   57.0892   46.6625 H   0  0  0  0  0  0
   20.2853   58.8581   45.7120 H   0  0  0  0  0  0
   22.0098   60.3682   47.7646 H   0  0  0  0  0  0
   20.1166   61.8215   48.4881 H   0  0  0  0  0  0
   21.3641   63.0238   48.0138 H   0  0  0  0  0  0
   19.4755   64.0056   46.3993 H   0  0  0  0  0  0
   18.0801   62.0719   46.5714 H   0  0  0  0  0  0
   16.9127   64.8265   47.7923 H   0  0  0  0  0  0
   17.5177   66.4849   47.0207 H   0  0  0  0  0  0
   17.8453   66.5886   43.8956 H   0  0  0  0  0  0
   16.1667   68.1893   44.6192 H   0  0  0  0  0  0
   17.1202   68.6375   46.0741 H   0  0  0  0  0  0
   17.8288   69.2705   43.1576 H   0  0  0  0  0  0
   19.3507   69.8503   45.7550 H   0  0  0  0  0  0
   19.9631   68.1143   43.3047 H   0  0  0  0  0  0
   21.1398   68.5584   44.5872 H   0  0  0  0  0  0
   19.4617   67.7250   46.3358 H   0  0  0  0  0  0
   20.0423   66.4051   45.2646 H   0  0  0  0  0  0
   13.8766   62.6820   41.6330 H   0  0  0  0  0  0
   12.4189   62.1774   42.5534 H   0  0  0  0  0  0
   13.1882   61.0399   41.3955 H   0  0  0  0  0  0
   16.8528   56.6900   49.1641 H   0  0  0  0  0  0
   16.5011   56.4616   47.4174 H   0  0  0  0  0  0
   15.5545   57.6494   48.3764 H   0  0  0  0  0  0
   21.2158   59.8755   49.1855 H   0  0  0  0  0  0
   20.8159   58.2396   49.8105 H   0  0  0  0  0  0
   19.5523   59.5153   49.7599 H   0  0  0  0  0  0
   23.1140   59.1476   45.7049 H   0  0  0  0  0  0
   22.0875   60.1340   44.6096 H   0  0  0  0  0  0
   24.3712   60.9075   44.6388 H   0  0  0  0  0  0
   24.2875   61.1578   46.4156 H   0  0  0  0  0  0
   23.2609   62.1443   45.3203 H   0  0  0  0  0  0
   16.4963   61.7385   48.5790 H   0  0  0  0  0  0
   17.4725   62.9250   49.5096 H   0  0  0  0  0  0
   18.2064   61.3707   48.9878 H   0  0  0  0  0  0
   17.3667   64.7563   43.6463 H   0  0  0  0  0  0
   16.1491   63.6239   44.3260 H   0  0  0  0  0  0
   17.9009   63.2588   44.4823 H   0  0  0  0  0  0
   19.6256   60.2269   42.6064 H   0  0  0  0  0  0
   18.8986   61.0533   44.0260 H   0  0  0  0  0  0
   18.2712   61.3841   42.3756 H   0  0  0  0  0  0
   17.0882   55.2281   44.1524 H   0  0  0  0  0  0
   15.6304   56.2327   43.8488 H   0  0  0  0  0  0
   15.8856   55.4847   45.4619 H   0  0  0  0  0  0
   15.3933   71.6681   43.7303 H   0  0  0  0  0  0
   15.3195   69.8736   43.7599 H   0  0  0  0  0  0
   16.3283   70.7109   42.5319 H   0  0  0  0  0  0
   13.8991   58.6349   42.4392 H   0  0  0  0  0  0
   18.8311   65.3298   48.5091 H   0  0  0  0  0  0
   20.7898   71.0746   44.1111 H   0  0  0  0  0  0
   20.0544   56.0105   48.7227 H   0  0  0  0  0  0
  1  2  1  0  0  0
  1 45  1  0  0  0
  1 46  2  0  0  0
  2  3  1  0  0  0
  2 44  1  0  0  0
  2 58  1  0  0  0
  3  4  1  0  0  0
  3 59  1  0  0  0
  3 60  1  0  0  0
  4  5  1  0  0  0
  4 61  1  0  0  0
  4 62  1  0  0  0
  5  6  1  0  0  0
  5 63  1  0  0  0
  5 64  1  0  0  0
  6 44  1  0  0  0
  6 65  1  0  0  0
  6 66  1  0  0  0
  7  8  1  0  0  0
  7 44  1  0  0  0
  7 47  2  0  0  0
  8  9  1  0  0  0
  8 48  2  0  0  0
  9 10  1  0  0  0
  9 49  1  0  0  0
  9 50  1  0  0  0
 10 11  1  0  0  0
 10 34  1  0  0  0
 10 67  1  0  0  0
 11 12  1  0  0  0
 11 68  1  0  0  0
 11 69  1  0  0  0
 12 13  1  0  0  0
 12 51  1  0  0  0
 12 70  1  0  0  0
 13 14  1  0  0  0
 13 49  1  0  0  0
 13 71  1  0  0  0
 14 15  1  0  0  0
 14 52  1  0  0  0
 14 72  1  0  0  0
 15 16  1  0  0  0
 15 73  1  0  0  0
 15 74  1  0  0  0
 16 17  1  0  0  0
 16 35  1  0  0  0
 16 75  1  0  0  0
 17 18  1  0  0  0
 17 57  1  0  0  0
 17 76  1  0  0  0
 18 19  2  0  0  0
 18 36  1  0  0  0
 19 20  1  0  0  0
 19 77  1  0  0  0
 20 21  1  0  0  0
 20 37  1  0  0  0
 20 78  1  0  0  0
 21 22  1  0  0  0
 21 53  2  0  0  0
 22 23  1  0  0  0
 22 79  1  0  0  0
 22 80  1  0  0  0
 23 24  1  0  0  0
 23 54  1  0  0  0
 23 81  1  0  0  0
 24 25  1  0  0  0
 24 39  1  0  0  0
 24 82  1  0  0  0
 25 26  1  0  0  0
 25 45  1  0  0  0
 25 83  1  0  0  0
 26 27  2  0  0  0
 26 40  1  0  0  0
 27 28  1  0  0  0
 27 84  1  0  0  0
 28 29  1  0  0  0
 28 33  1  0  0  0
 28 85  1  0  0  0
 29 30  1  0  0  0
 29 86  1  0  0  0
 29 87  1  0  0  0
 30 31  1  0  0  0
 30 55  1  0  0  0
 30 88  1  0  0  0
 31 32  1  0  0  0
 31 56  1  0  0  0
 31 89  1  0  0  0
 32 33  1  0  0  0
 32 90  1  0  0  0
 32 91  1  0  0  0
 33 92  1  0  0  0
 33 93  1  0  0  0
 34 94  1  0  0  0
 34 95  1  0  0  0
 34 96  1  0  0  0
 35 97  1  0  0  0
 35 98  1  0  0  0
 35 99  1  0  0  0
 36100  1  0  0  0
 36101  1  0  0  0
 36102  1  0  0  0
 37 38  1  0  0  0
 37103  1  0  0  0
 37104  1  0  0  0
 38105  1  0  0  0
 38106  1  0  0  0
 38107  1  0  0  0
 39108  1  0  0  0
 39109  1  0  0  0
 39110  1  0  0  0
 40111  1  0  0  0
 40112  1  0  0  0
 40113  1  0  0  0
 41 51  1  0  0  0
 41114  1  0  0  0
 41115  1  0  0  0
 41116  1  0  0  0
 42 52  1  0  0  0
 42117  1  0  0  0
 42118  1  0  0  0
 42119  1  0  0  0
 43 55  1  0  0  0
 43120  1  0  0  0
 43121  1  0  0  0
 43122  1  0  0  0
 50123  1  0  0  0
 54124  1  0  0  0
 56125  1  0  0  0
 57126  1  0  0  0
M  END
