1JFF
                    3D
 Structure written by MMmdl.
113119  0  0  1  0            999 V2000
   14.2829   60.9930   47.0456 O   0  0  0  0  0  0
   15.6839   60.8030   46.7686 C   0  0  1  0  0  0
   15.7649   60.1540   45.2756 C   0  0  1  0  0  0
   15.1109   61.1970   44.4536 O   0  0  0  0  0  0
   13.8219   60.9330   43.9346 C   0  0  0  0  0  0
   13.2359   59.8900   44.0946 O   0  0  0  0  0  0
   13.2949   62.0330   43.1686 C   0  0  0  0  0  0
   11.9129   62.3330   43.5436 C   0  0  0  0  0  0
   11.2929   63.4630   42.7846 C   0  0  0  0  0  0
   12.0149   64.1700   41.7826 C   0  0  0  0  0  0
   13.1969   63.8260   41.5466 C   0  0  0  0  0  0
   13.9319   62.7820   42.1706 C   0  0  0  0  0  0
   17.2219   59.8580   44.6266 C   0  0  2  0  0  0
   17.3729   60.3210   43.0906 C   0  0  2  0  0  0
   17.2319   61.7930   42.9286 O   0  0  0  0  0  0
   18.1669   62.6760   43.4176 C   0  0  0  0  0  0
   19.1599   62.3760   44.0106 O   0  0  0  0  0  0
   17.7419   64.0890   43.0796 C   0  0  0  0  0  0
   16.3819   59.7890   42.0216 C   0  0  0  0  0  0
   17.4399   59.2270   41.2106 O   0  0  0  0  0  0
   18.4359   59.6890   42.1476 C   0  0  2  0  0  0
   19.3149   58.5170   42.6976 C   0  0  0  0  0  0
   19.2589   58.3590   44.2116 C   0  0  2  0  0  0
   20.0699   57.2210   44.6046 O   0  0  0  0  0  0
   17.7639   58.2700   44.7866 C   0  0  2  0  0  0
   16.9539   57.2350   43.9486 C   0  0  0  0  0  0
   17.7829   57.6100   46.2676 C   0  0  0  0  0  0
   17.2469   56.5270   46.4366 O   0  0  0  0  0  0
   18.4339   58.3090   47.4676 C   0  0  2  0  0  0
   18.2429   57.4340   48.6606 O   0  0  0  0  0  0
   19.3289   56.8190   49.2496 C   0  0  0  0  0  0
   20.4599   56.9230   48.8866 O   0  0  0  0  0  0
   18.8889   55.9870   50.4226 C   0  0  0  0  0  0
   17.8179   59.6940   47.6786 C   0  0  0  0  0  0
   18.6099   60.8270   47.5226 C   0  0  0  0  0  0
   17.8719   62.1990   47.5936 C   0  0  1  0  0  0
   18.6509   63.3300   47.0686 O   0  0  0  0  0  0
   19.3679   64.0400   47.9296 C   0  0  0  0  0  0
   19.4709   63.8680   49.1046 O   0  0  0  0  0  0
   20.0889   65.2010   47.1956 C   0  0  2  0  0  0
   20.8019   65.9510   48.1606 O   0  0  0  0  0  0
   19.0219   66.0410   46.4496 C   0  0  1  0  0  0
   17.9979   66.3930   47.4266 N   0  0  0  0  0  0
   16.7119   66.6470   47.0886 C   0  0  0  0  0  0
   16.3029   66.6200   45.9336 O   0  0  0  0  0  0
   15.8259   66.9340   48.2516 C   0  0  0  0  0  0
   16.0159   68.0010   49.1276 C   0  0  0  0  0  0
   15.1389   68.2140   50.2256 C   0  0  0  0  0  0
   14.0509   67.3220   50.4356 C   0  0  0  0  0  0
   13.8549   66.2590   49.5706 C   0  0  0  0  0  0
   14.7129   66.0410   48.4876 C   0  0  0  0  0  0
   19.6579   67.2510   45.7326 C   0  0  0  0  0  0
   20.0539   67.0900   44.3946 C   0  0  0  0  0  0
   20.6519   68.1620   43.6806 C   0  0  0  0  0  0
   20.8469   69.4000   44.3176 C   0  0  0  0  0  0
   20.4559   69.5640   45.6346 C   0  0  0  0  0  0
   19.8569   68.4930   46.3576 C   0  0  0  0  0  0
   16.5249   62.1690   46.7736 C   0  0  0  0  0  0
   20.0999   60.8490   47.1986 C   0  0  0  0  0  0
   16.2479   59.8350   47.9906 C   0  0  0  0  0  0
   16.0669   60.4880   49.4356 C   0  0  0  0  0  0
   15.3939   58.5500   48.0926 C   0  0  0  0  0  0
   13.9658   61.4241   48.0067 H   0  0  0  0  0  0
   15.2596   59.1770   45.2602 H   0  0  0  0  0  0
   11.4246   61.7544   44.3138 H   0  0  0  0  0  0
   10.2751   63.7588   42.9922 H   0  0  0  0  0  0
   11.5427   64.9805   41.2473 H   0  0  0  0  0  0
   13.7707   64.3462   40.7940 H   0  0  0  0  0  0
   14.9523   62.5586   41.8962 H   0  0  0  0  0  0
   17.8484   60.5378   45.2228 H   0  0  0  0  0  0
   18.4867   64.7989   43.4687 H   0  0  0  0  0  0
   16.7633   64.2968   43.5370 H   0  0  0  0  0  0
   17.6669   64.1980   41.9876 H   0  0  0  0  0  0
   15.6828   59.0806   42.4901 H   0  0  0  0  0  0
   15.8184   60.6308   41.5928 H   0  0  0  0  0  0
   19.2250   60.3591   41.7758 H   0  0  0  0  0  0
   18.9754   57.5670   42.2591 H   0  0  0  0  0  0
   20.3672   58.6900   42.4278 H   0  0  0  0  0  0
   19.7688   59.2270   44.6550 H   0  0  0  0  0  0
   20.1541   56.9461   45.6664 H   0  0  0  0  0  0
   17.3690   56.2289   44.1081 H   0  0  0  0  0  0
   17.0207   57.4944   42.8817 H   0  0  0  0  0  0
   15.9004   57.2514   44.2647 H   0  0  0  0  0  0
   19.5144   58.4491   47.3165 H   0  0  0  0  0  0
   19.7656   55.5047   50.8795 H   0  0  0  0  0  0
   18.1828   55.2159   50.0809 H   0  0  0  0  0  0
   18.3965   56.6318   51.1654 H   0  0  0  0  0  0
   17.7431   62.4043   48.6666 H   0  0  0  0  0  0
   20.8776   64.8862   46.4964 H   0  0  0  0  0  0
   21.3889   66.8284   47.8514 H   0  0  0  0  0  0
   18.4930   65.4786   45.6660 H   0  0  0  0  0  0
   18.2563   66.4620   48.4936 H   0  0  0  0  0  0
   16.8402   68.6825   48.9778 H   0  0  0  0  0  0
   15.3012   69.0478   50.8926 H   0  0  0  0  0  0
   13.3802   67.4749   51.2682 H   0  0  0  0  0  0
   13.0285   65.5813   49.7264 H   0  0  0  0  0  0
   14.5428   65.2037   47.8270 H   0  0  0  0  0  0
   19.9047   66.1429   43.8976 H   0  0  0  0  0  0
   20.9545   68.0241   42.6531 H   0  0  0  0  0  0
   21.3005   70.2189   43.7791 H   0  0  0  0  0  0
   20.6036   70.5135   46.1275 H   0  0  0  0  0  0
   19.5558   68.6349   47.3851 H   0  0  0  0  0  0
   16.8090   62.4284   45.7431 H   0  0  0  0  0  0
   15.9105   62.9763   47.1989 H   0  0  0  0  0  0
   20.4466   61.8912   47.1382 H   0  0  0  0  0  0
   20.2729   60.3485   46.2345 H   0  0  0  0  0  0
   20.6549   60.3231   47.9895 H   0  0  0  0  0  0
   16.4583   59.8007   50.2002 H   0  0  0  0  0  0
   14.9991   60.6747   49.6225 H   0  0  0  0  0  0
   16.6186   61.4386   49.4801 H   0  0  0  0  0  0
   15.7787   57.9177   48.9064 H   0  0  0  0  0  0
   15.4473   57.9979   47.1427 H   0  0  0  0  0  0
   14.3483   58.8203   48.3014 H   0  0  0  0  0  0
  1  2  1  0  0  0
  1 63  1  0  0  0
  2  3  1  0  0  0
  2 58  1  0  0  0
  2 60  1  0  0  0
  3  4  1  0  0  0
  3 13  1  0  0  0
  3 64  1  0  0  0
  4  5  1  0  0  0
  5  6  2  0  0  0
  5  7  1  0  0  0
  7  8  1  0  0  0
  7 12  2  0  0  0
  8  9  2  0  0  0
  8 65  1  0  0  0
  9 10  1  0  0  0
  9 66  1  0  0  0
 10 11  2  0  0  0
 10 67  1  0  0  0
 11 12  1  0  0  0
 11 68  1  0  0  0
 12 69  1  0  0  0
 13 14  1  0  0  0
 13 25  1  0  0  0
 13 70  1  0  0  0
 14 15  1  0  0  0
 14 19  1  0  0  0
 14 21  1  0  0  0
 15 16  1  0  0  0
 16 17  2  0  0  0
 16 18  1  0  0  0
 18 71  1  0  0  0
 18 72  1  0  0  0
 18 73  1  0  0  0
 19 20  1  0  0  0
 19 74  1  0  0  0
 19 75  1  0  0  0
 20 21  1  0  0  0
 21 22  1  0  0  0
 21 76  1  0  0  0
 22 23  1  0  0  0
 22 77  1  0  0  0
 22 78  1  0  0  0
 23 24  1  0  0  0
 23 25  1  0  0  0
 23 79  1  0  0  0
 24 80  1  0  0  0
 25 26  1  0  0  0
 25 27  1  0  0  0
 26 81  1  0  0  0
 26 82  1  0  0  0
 26 83  1  0  0  0
 27 28  2  0  0  0
 27 29  1  0  0  0
 29 30  1  0  0  0
 29 34  1  0  0  0
 29 84  1  0  0  0
 30 31  1  0  0  0
 31 32  2  0  0  0
 31 33  1  0  0  0
 33 85  1  0  0  0
 33 86  1  0  0  0
 33 87  1  0  0  0
 34 35  2  0  0  0
 34 60  1  0  0  0
 35 36  1  0  0  0
 35 59  1  0  0  0
 36 37  1  0  0  0
 36 58  1  0  0  0
 36 88  1  0  0  0
 37 38  1  0  0  0
 38 39  2  0  0  0
 38 40  1  0  0  0
 40 41  1  0  0  0
 40 42  1  0  0  0
 40 89  1  0  0  0
 41 90  1  0  0  0
 42 43  1  0  0  0
 42 52  1  0  0  0
 42 91  1  0  0  0
 43 44  1  0  0  0
 43 92  1  0  0  0
 44 45  2  0  0  0
 44 46  1  0  0  0
 46 47  1  0  0  0
 46 51  2  0  0  0
 47 48  2  0  0  0
 47 93  1  0  0  0
 48 49  1  0  0  0
 48 94  1  0  0  0
 49 50  2  0  0  0
 49 95  1  0  0  0
 50 51  1  0  0  0
 50 96  1  0  0  0
 51 97  1  0  0  0
 52 53  1  0  0  0
 52 57  2  0  0  0
 53 54  2  0  0  0
 53 98  1  0  0  0
 54 55  1  0  0  0
 54 99  1  0  0  0
 55 56  2  0  0  0
 55100  1  0  0  0
 56 57  1  0  0  0
 56101  1  0  0  0
 57102  1  0  0  0
 58103  1  0  0  0
 58104  1  0  0  0
 59105  1  0  0  0
 59106  1  0  0  0
 59107  1  0  0  0
 60 61  1  0  0  0
 60 62  1  0  0  0
 61108  1  0  0  0
 61109  1  0  0  0
 61110  1  0  0  0
 62111  1  0  0  0
 62112  1  0  0  0
 62113  1  0  0  0
M  END
