1BXO
                    3D
 Structure written by MMmdl.
 90 91  0  0  1  0            999 V2000
   14.5402   58.9838   43.1756 N   0  0  0  0  0  0
   12.5812   57.7238   42.4736 C   0  0  0  0  0  0
   15.7952   59.2658   43.8686 C   0  0  1  0  0  0
   11.3302   57.5568   43.2896 C   0  0  0  0  0  0
   17.0122   59.1588   42.9576 C   0  0  0  0  0  0
   11.1782   58.5888   44.2966 C   0  0  0  0  0  0
   17.1672   57.7828   42.3806 C   0  0  0  0  0  0
   10.1072   57.4418   42.3216 C   0  0  0  0  0  0
   17.0162   60.2478   41.9006 C   0  0  0  0  0  0
   13.8172   57.8908   43.3236 C   0  0  0  0  0  0
   15.6862   60.6308   44.5926 C   0  0  0  0  0  0
   14.1952   56.9548   44.0936 O   0  0  0  0  0  0
   14.8562   61.4838   44.2606 O   0  0  0  0  0  0
   16.5982   60.8078   45.5486 N   0  0  0  0  0  0
   16.6042   61.9948   46.4286 C   0  0  1  0  0  0
   15.8602   61.6928   47.7176 C   0  0  0  0  0  0
   15.6792   62.7958   48.7276 C   0  0  0  0  0  0
   15.5532   62.5028   49.9436 O   0  0  0  0  0  0
   15.5662   64.0268   48.3246 N   0  0  0  0  0  0
   15.1532   65.1438   49.1856 C   0  0  0  0  0  0
   18.0442   62.4008   46.6686 C   0  0  0  0  0  0
   18.6692   62.0268   47.6856 O   0  0  0  0  0  0
   18.6282   63.1548   45.7156 N   0  0  0  0  0  0
   20.0422   63.5138   45.6786 C   0  0  1  0  0  0
   20.7232   62.9898   44.3986 C   0  0  0  0  0  0
   20.4602   61.5268   44.0346 C   0  0  0  0  0  0
   21.0882   61.1548   42.7126 C   0  0  0  0  0  0
   20.9172   60.5798   45.1596 C   0  0  0  0  0  0
   20.2112   65.3158   45.8446 P   0  0  0  0  0  0
   19.2432   65.9558   44.8776 O   0  0  0  0  0  0
   21.6602   65.7138   45.7086 O   0  5  0  0  0  0
   19.8432   65.5928   47.3656 O   0  0  0  0  0  0
   20.4552   66.6398   48.1476 C   0  0  1  0  0  0
   19.3962   67.7348   48.4566 C   0  0  0  0  0  0
   22.0022   66.6648   51.5226 C   0  0  0  0  0  0
   18.3062   67.2988   49.3586 C   0  0  0  0  0  0
   18.2092   67.7548   50.6916 C   0  0  0  0  0  0
   17.2962   66.4348   48.9216 C   0  0  0  0  0  0
   17.1772   67.3348   51.5166 C   0  0  0  0  0  0
   16.2272   66.4248   51.0696 C   0  0  0  0  0  0
   16.2712   65.9988   49.7266 C   0  0  0  0  0  0
   21.0132   66.0468   49.4336 C   0  0  0  0  0  0
   21.4652   66.9948   50.2086 O   0  0  0  0  0  0
   21.0162   64.8838   49.6986 O   0  0  0  0  0  0
   14.1285   59.7147   42.4641 H   0  0  0  0  0  0
   12.7269   56.8364   41.8401 H   0  0  0  0  0  0
   15.9175   58.4539   44.6006 H   0  0  0  0  0  0
   10.2497   58.4167   44.8607 H   0  0  0  0  0  0
   18.0556   57.7549   41.7326 H   0  0  0  0  0  0
    9.1851   57.3191   42.9088 H   0  0  0  0  0  0
   17.9068   60.1380   41.2644 H   0  0  0  0  0  0
   17.3658   60.0293   45.6699 H   0  0  0  0  0  0
   16.0767   62.8228   45.9324 H   0  0  0  0  0  0
   14.8379   61.3619   47.4820 H   0  0  0  0  0  0
   16.3856   60.8975   48.2666 H   0  0  0  0  0  0
   15.8028   64.2070   47.2656 H   0  0  0  0  0  0
   14.4944   65.8188   48.6196 H   0  0  0  0  0  0
   14.6129   64.7523   50.0602 H   0  0  0  0  0  0
   17.9507   63.5060   44.9234 H   0  0  0  0  0  0
   20.4493   62.8505   46.4560 H   0  0  0  0  0  0
   20.3835   63.5799   43.5347 H   0  0  0  0  0  0
   19.3746   61.4108   43.9001 H   0  0  0  0  0  0
   20.8757   60.0987   42.4900 H   0  0  0  0  0  0
   20.7148   59.5388   44.8674 H   0  0  0  0  0  0
   21.2812   67.0443   47.5442 H   0  0  0  0  0  0
   19.8864   68.5931   48.9394 H   0  0  0  0  0  0
   18.9232   68.0625   47.5191 H   0  0  0  0  0  0
   22.3318   67.5857   52.0258 H   0  0  0  0  0  0
   22.8578   65.9830   51.4083 H   0  0  0  0  0  0
   21.2222   66.1766   52.1254 H   0  0  0  0  0  0
   18.8472   68.3448   51.0216 H   0  0  0  0  0  0
   17.3202   66.1398   48.0396 H   0  0  0  0  0  0
   17.1192   67.6678   52.3826 H   0  0  0  0  0  0
   15.5742   66.1008   51.6466 H   0  0  0  0  0  0
   12.4879   58.6167   41.8380 H   0  0  0  0  0  0
   11.4320   56.6666   43.9277 H   0  0  0  0  0  0
   17.9116   59.3118   43.5722 H   0  0  0  0  0  0
   11.1336   59.5736   43.8085 H   0  0  0  0  0  0
   12.0360   58.5590   44.9845 H   0  0  0  0  0  0
   16.2743   57.5302   41.7898 H   0  0  0  0  0  0
   17.2853   57.0543   43.1963 H   0  0  0  0  0  0
   10.2413   56.5708   41.6632 H   0  0  0  0  0  0
   10.0350   58.3546   41.7120 H   0  0  0  0  0  0
   17.0339   61.2331   42.3894 H   0  0  0  0  0  0
   16.1107   60.1616   41.2819 H   0  0  0  0  0  0
   21.8146   63.0826   44.4996 H   0  0  0  0  0  0
   22.1763   61.3061   42.7681 H   0  0  0  0  0  0
   20.6700   61.7887   41.9168 H   0  0  0  0  0  0
   20.3674   60.8151   46.0828 H   0  0  0  0  0  0
   21.9959   60.7091   45.3321 H   0  0  0  0  0  0
  1  3  1  0  0  0
  1 10  1  0  0  0
  1 45  1  0  0  0
  2  4  1  0  0  0
  2 10  1  0  0  0
  2 46  1  0  0  0
  2 75  1  0  0  0
  3  5  1  0  0  0
  3 11  1  0  0  0
  3 47  1  0  0  0
  4  6  1  0  0  0
  4  8  1  0  0  0
  4 76  1  0  0  0
  5  7  1  0  0  0
  5  9  1  0  0  0
  5 77  1  0  0  0
  6 48  1  0  0  0
  6 78  1  0  0  0
  6 79  1  0  0  0
  7 49  1  0  0  0
  7 80  1  0  0  0
  7 81  1  0  0  0
  8 50  1  0  0  0
  8 82  1  0  0  0
  8 83  1  0  0  0
  9 51  1  0  0  0
  9 84  1  0  0  0
  9 85  1  0  0  0
 10 12  2  0  0  0
 11 13  2  0  0  0
 11 14  1  0  0  0
 14 15  1  0  0  0
 14 52  1  0  0  0
 15 16  1  0  0  0
 15 21  1  0  0  0
 15 53  1  0  0  0
 16 17  1  0  0  0
 16 54  1  0  0  0
 16 55  1  0  0  0
 17 18  2  0  0  0
 17 19  1  0  0  0
 19 20  1  0  0  0
 19 56  1  0  0  0
 20 41  1  0  0  0
 20 57  1  0  0  0
 20 58  1  0  0  0
 21 22  2  0  0  0
 21 23  1  0  0  0
 23 24  1  0  0  0
 23 59  1  0  0  0
 24 25  1  0  0  0
 24 29  1  0  0  0
 24 60  1  0  0  0
 25 26  1  0  0  0
 25 61  1  0  0  0
 25 86  1  0  0  0
 26 27  1  0  0  0
 26 28  1  0  0  0
 26 62  1  0  0  0
 27 63  1  0  0  0
 27 87  1  0  0  0
 27 88  1  0  0  0
 28 64  1  0  0  0
 28 89  1  0  0  0
 28 90  1  0  0  0
 29 30  2  0  0  0
 29 31  1  0  0  0
 29 32  1  0  0  0
 32 33  1  0  0  0
 33 34  1  0  0  0
 33 42  1  0  0  0
 33 65  1  0  0  0
 34 36  1  0  0  0
 34 66  1  0  0  0
 34 67  1  0  0  0
 35 43  1  0  0  0
 35 68  1  0  0  0
 35 69  1  0  0  0
 35 70  1  0  0  0
 36 37  1  0  0  0
 36 38  2  0  0  0
 37 39  2  0  0  0
 37 71  1  0  0  0
 38 41  1  0  0  0
 38 72  1  0  0  0
 39 40  1  0  0  0
 39 73  1  0  0  0
 40 41  2  0  0  0
 40 74  1  0  0  0
 42 43  1  0  0  0
 42 44  2  0  0  0
M  CHG  1  31  -1
M  END
