1NWX
                    3D
 Structure written by MMmdl.
115119  0  0  1  0            999 V2000
   17.7057   56.5723   44.6250 O   0  0  0  0  0  0
   17.9557   57.3063   43.4150 C   0  0  1  0  0  0
   18.2557   58.7463   43.7500 C   0  0  1  0  0  0
   18.5487   59.4653   42.5760 O   0  0  0  0  0  0
   19.7537   58.9683   41.9210 C   0  0  2  0  0  0
   19.9967   59.9093   40.7260 C   0  0  0  0  0  0
   19.5427   57.5443   41.4900 C   0  0  0  0  0  0
   19.1597   56.7023   42.7040 C   0  0  2  0  0  0
   18.9507   55.2993   42.5290 N   0  3  0  0  0  0
   18.0867   54.9893   41.4270 C   0  0  0  0  0  0
   20.1877   54.5073   42.3650 C   0  0  0  0  0  0
   17.1067   59.3393   44.3030 O   0  0  0  0  0  0
   17.3307   60.4683   45.1560 C   0  0  2  0  0  0
   16.9427   60.0883   46.6260 C   0  0  2  0  0  0
   18.0917   60.0263   47.4880 C   0  0  0  0  0  0
   19.1347   59.5883   47.1170 O   0  0  0  0  0  0
   17.8537   60.4323   48.9990 C   0  0  2  0  0  0
   17.7457   61.9213   49.1240 C   0  0  0  0  0  0
   18.6787   62.6633   48.9690 O   0  0  0  0  0  0
   16.4997   62.2873   49.4670 O   0  0  0  0  0  0
   16.2547   63.6923   49.8880 C   0  0  2  0  0  0
   16.3407   63.6903   51.4490 C   0  0  0  0  0  0
   15.7887   62.5403   52.2130 C   0  0  0  0  0  0
   14.9777   64.1163   49.2290 C   0  0  1  0  0  0
   14.7247   65.4953   49.6400 O   0  0  0  0  0  0
   15.2247   66.4013   48.7310 C   0  0  0  0  0  0
   15.2107   67.6043   48.9850 O   0  0  0  0  0  0
   15.6267   65.6643   47.6580 N   0  0  0  0  0  0
   15.2187   64.2553   47.6480 C   0  0  2  0  0  0
   14.0317   63.9973   46.7020 C   0  0  2  0  0  0
   14.5087   64.1453   45.3150 C   0  0  0  0  0  0
   14.9597   65.1283   44.8630 O   0  0  0  0  0  0
   14.3007   62.8753   44.3800 C   0  0  2  0  0  0
   12.7987   62.5203   44.2360 C   0  0  0  0  0  0
   15.0757   61.5933   44.7630 C   0  0  0  0  0  0
   16.5617   61.6983   44.5870 C   0  0  1  0  0  0
   16.9757   62.8003   45.4800 O   0  0  0  0  0  0
   18.2377   63.4343   45.2590 C   0  0  0  0  0  0
   18.3007   64.7953   45.6830 C   0  0  0  0  0  0
   18.5427   65.7653   44.9490 C   0  0  0  0  0  0
   18.6367   67.1933   45.3550 C   0  0  0  0  0  0
   18.7957   67.6053   46.6630 C   0  0  0  0  0  0
   19.0207   68.9853   46.9800 C   0  0  0  0  0  0
   18.9867   69.8863   45.9160 C   0  0  0  0  0  0
   18.8107   69.5063   44.6000 N   0  0  0  0  0  0
   18.6637   68.1963   44.3690 C   0  0  0  0  0  0
   19.2077   71.1723   46.1470 C   0  0  0  0  0  0
   19.4077   71.5903   47.4390 C   0  0  0  0  0  0
   19.4357   70.6743   48.4770 C   0  0  0  0  0  0
   19.2487   69.4673   48.2510 C   0  0  0  0  0  0
   16.9067   61.9853   43.1600 C   0  0  0  0  0  0
   12.8837   64.9983   46.8080 C   0  0  0  0  0  0
   13.8167   63.2403   49.6360 C   0  0  0  0  0  0
   18.9787   59.9783   49.9500 C   0  0  0  0  0  0
   16.1787   58.8453   46.7980 C   0  0  0  0  0  0
   17.4679   55.4993   44.5782 H   0  0  0  0  0  0
   17.0418   57.2319   42.8072 H   0  0  0  0  0  0
   19.1003   58.8398   44.4485 H   0  0  0  0  0  0
   20.6010   58.9582   42.6224 H   0  0  0  0  0  0
   20.8984   59.5882   40.1839 H   0  0  0  0  0  0
   20.1351   60.9376   41.0913 H   0  0  0  0  0  0
   19.1301   59.8740   40.0494 H   0  0  0  0  0  0
   18.7359   57.5029   40.7434 H   0  0  0  0  0  0
   20.4712   57.1534   41.0484 H   0  0  0  0  0  0
   20.0779   56.6639   43.3084 H   0  0  0  0  0  0
   17.9689   53.8984   41.3490 H   0  0  0  0  0  0
   18.5256   55.3781   40.4963 H   0  0  0  0  0  0
   17.1029   55.4536   41.5905 H   0  0  0  0  0  0
   19.9291   53.4457   42.2374 H   0  0  0  0  0  0
   20.8200   54.6260   43.2572 H   0  0  0  0  0  0
   20.7344   54.8606   41.4783 H   0  0  0  0  0  0
   18.4083   60.6860   45.1185 H   0  0  0  0  0  0
   16.2793   60.8820   47.0001 H   0  0  0  0  0  0
   16.9143   59.9615   49.3246 H   0  0  0  0  0  0
   16.9740   64.4398   49.5222 H   0  0  0  0  0  0
   17.3952   63.7386   51.7581 H   0  0  0  0  0  0
   15.8016   64.5626   51.8470 H   0  0  0  0  0  0
   15.9367   62.7104   53.2896 H   0  0  0  0  0  0
   16.3073   61.6178   51.9128 H   0  0  0  0  0  0
   14.7136   62.4418   52.0017 H   0  0  0  0  0  0
   16.2240   66.0698   46.8281 H   0  0  0  0  0  0
   15.9311   63.5485   47.1975 H   0  0  0  0  0  0
   13.6620   62.9894   46.9419 H   0  0  0  0  0  0
   14.7283   63.1777   43.4127 H   0  0  0  0  0  0
   12.6907   61.6401   43.5851 H   0  0  0  0  0  0
   12.2614   63.3719   43.7932 H   0  0  0  0  0  0
   12.3780   62.2968   45.2275 H   0  0  0  0  0  0
   14.8917   61.3560   45.8212 H   0  0  0  0  0  0
   14.7343   60.7571   44.1351 H   0  0  0  0  0  0
   19.0215   62.8924   45.8085 H   0  0  0  0  0  0
   18.4699   63.4240   44.1838 H   0  0  0  0  0  0
   18.1130   64.9506   46.7557 H   0  0  0  0  0  0
   18.7146   65.6117   43.8734 H   0  0  0  0  0  0
   18.7513   66.8839   47.4655 H   0  0  0  0  0  0
   18.5608   67.9320   43.3269 H   0  0  0  0  0  0
   19.2282   71.8728   45.3252 H   0  0  0  0  0  0
   19.5446   72.6402   47.6518 H   0  0  0  0  0  0
   19.6206   71.0084   49.4872 H   0  0  0  0  0  0
   19.2690   68.7881   49.0905 H   0  0  0  0  0  0
   16.3363   62.8598   42.8136 H   0  0  0  0  0  0
   16.6538   61.1132   42.5391 H   0  0  0  0  0  0
   17.9836   62.1939   43.0779 H   0  0  0  0  0  0
   12.0921   64.7252   46.0947 H   0  0  0  0  0  0
   13.2545   66.0074   46.5756 H   0  0  0  0  0  0
   12.4773   64.9833   47.8301 H   0  0  0  0  0  0
   12.9023   63.5853   49.1311 H   0  0  0  0  0  0
   13.6779   63.2983   50.7257 H   0  0  0  0  0  0
   14.0241   62.1992   49.3476 H   0  0  0  0  0  0
   18.7418   60.2959   50.9761 H   0  0  0  0  0  0
   19.9299   60.4326   49.6359 H   0  0  0  0  0  0
   19.0671   58.8823   49.9165 H   0  0  0  0  0  0
   15.9685   58.6889   47.8663 H   0  0  0  0  0  0
   16.7647   57.9983   46.4118 H   0  0  0  0  0  0
   15.2308   58.9180   46.2446 H   0  0  0  0  0  0
   18.4476   55.0391   43.4720 H   0  0  0  0  0  0
  1  2  1  0  0  0
  1 56  1  0  0  0
  2  3  1  0  0  0
  2  8  1  0  0  0
  2 57  1  0  0  0
  3  4  1  0  0  0
  3 12  1  0  0  0
  3 58  1  0  0  0
  4  5  1  0  0  0
  5  6  1  0  0  0
  5  7  1  0  0  0
  5 59  1  0  0  0
  6 60  1  0  0  0
  6 61  1  0  0  0
  6 62  1  0  0  0
  7  8  1  0  0  0
  7 63  1  0  0  0
  7 64  1  0  0  0
  8  9  1  0  0  0
  8 65  1  0  0  0
  9 10  1  0  0  0
  9 11  1  0  0  0
  9115  1  0  0  0
 10 66  1  0  0  0
 10 67  1  0  0  0
 10 68  1  0  0  0
 11 69  1  0  0  0
 11 70  1  0  0  0
 11 71  1  0  0  0
 12 13  1  0  0  0
 13 14  1  0  0  0
 13 36  1  0  0  0
 13 72  1  0  0  0
 14 15  1  0  0  0
 14 55  1  0  0  0
 14 73  1  0  0  0
 15 16  2  0  0  0
 15 17  1  0  0  0
 17 18  1  0  0  0
 17 54  1  0  0  0
 17 74  1  0  0  0
 18 19  2  0  0  0
 18 20  1  0  0  0
 20 21  1  0  0  0
 21 22  1  0  0  0
 21 24  1  0  0  0
 21 75  1  0  0  0
 22 23  1  0  0  0
 22 76  1  0  0  0
 22 77  1  0  0  0
 23 78  1  0  0  0
 23 79  1  0  0  0
 23 80  1  0  0  0
 24 25  1  0  0  0
 24 29  1  0  0  0
 24 53  1  0  0  0
 25 26  1  0  0  0
 26 27  2  0  0  0
 26 28  1  0  0  0
 28 29  1  0  0  0
 28 81  1  0  0  0
 29 30  1  0  0  0
 29 82  1  0  0  0
 30 31  1  0  0  0
 30 52  1  0  0  0
 30 83  1  0  0  0
 31 32  2  0  0  0
 31 33  1  0  0  0
 33 34  1  0  0  0
 33 35  1  0  0  0
 33 84  1  0  0  0
 34 85  1  0  0  0
 34 86  1  0  0  0
 34 87  1  0  0  0
 35 36  1  0  0  0
 35 88  1  0  0  0
 35 89  1  0  0  0
 36 37  1  0  0  0
 36 51  1  0  0  0
 37 38  1  0  0  0
 38 39  1  0  0  0
 38 90  1  0  0  0
 38 91  1  0  0  0
 39 40  2  0  0  0
 39 92  1  0  0  0
 40 41  1  0  0  0
 40 93  1  0  0  0
 41 42  1  0  0  0
 41 46  2  0  0  0
 42 43  2  0  0  0
 42 94  1  0  0  0
 43 44  1  0  0  0
 43 50  1  0  0  0
 44 45  2  0  0  0
 44 47  1  0  0  0
 45 46  1  0  0  0
 46 95  1  0  0  0
 47 48  2  0  0  0
 47 96  1  0  0  0
 48 49  1  0  0  0
 48 97  1  0  0  0
 49 50  2  0  0  0
 49 98  1  0  0  0
 50 99  1  0  0  0
 51100  1  0  0  0
 51101  1  0  0  0
 51102  1  0  0  0
 52103  1  0  0  0
 52104  1  0  0  0
 52105  1  0  0  0
 53106  1  0  0  0
 53107  1  0  0  0
 53108  1  0  0  0
 54109  1  0  0  0
 54110  1  0  0  0
 54111  1  0  0  0
 55112  1  0  0  0
 55113  1  0  0  0
 55114  1  0  0  0
M  CHG  1   9   1
M  END
