1FKJ
                    3D
 Structure written by MMmdl.
126129  0  0  1  0            999 V2000
   19.9490   28.5680   21.8570 C   0  0  0  0  0  0
   18.5680   29.2180   21.9700 C   0  0  2  0  0  0
   17.9640   29.3850   20.5740 C   0  0  0  0  0  0
   18.6010   30.5210   19.7410 C   0  0  0  0  0  0
   18.4150   31.8300   20.4740 C   0  0  0  0  0  0
   19.0350   31.6930   21.8620 C   0  0  0  0  0  0
   17.8510   30.6210   23.8590 C   0  0  0  0  0  0
   17.6760   31.8340   24.5460 C   0  0  0  0  0  0
   18.8010   32.3560   25.5030 C   0  0  1  0  0  0
   19.4560   31.2560   26.3820 C   0  0  1  0  0  0
   20.8150   31.7500   26.9900 C   0  0  0  0  0  0
   21.7170   32.4490   25.9220 C   0  0  1  0  0  0
   20.9200   33.5710   25.2370 C   0  0  1  0  0  0
   21.5930   34.5020   24.1650 C   0  0  2  0  0  0
   22.3720   33.7450   23.0450 C   0  0  0  0  0  0
   22.9530   34.5470   21.8340 C   0  0  2  0  0  0
   24.4210   35.0990   22.0620 C   0  0  0  0  0  0
   25.4600   33.9540   21.9020 C   0  0  0  0  0  0
   25.9660   33.3520   23.0260 C   0  0  0  0  0  0
   27.0140   32.2090   23.1430 C   0  0  2  0  0  0
   26.2320   30.8580   23.2780 C   0  0  0  0  0  0
   26.0690   30.0360   21.9760 C   0  0  0  0  0  0
   24.8560   29.0920   22.0330 C   0  0  1  0  0  0
   23.4400   29.7780   22.1230 C   0  0  2  0  0  0
   22.3560   28.6810   22.3690 C   0  0  1  0  0  0
   22.5560   27.8570   23.6720 C   0  0  0  0  0  0
   22.7290   26.5200   23.5250 C   0  0  0  0  0  0
   23.3550   25.5680   24.5590 C   0  0  1  0  0  0
   22.5230   24.2530   24.4380 C   0  0  0  0  0  0
   23.1300   23.1360   25.2860 C   0  0  2  0  0  0
   24.6070   22.9410   24.8660 C   0  0  1  0  0  0
   25.4660   24.2210   25.0170 C   0  0  0  0  0  0
   24.8530   25.3700   24.1760 C   0  0  0  0  0  0
   18.4750   30.7070   27.4450 C   0  0  0  0  0  0
   22.0050   35.6680   21.3220 C   0  0  0  0  0  0
   25.9280   33.6840   20.4370 C   0  0  0  0  0  0
   27.9220   32.5140   24.4170 C   0  0  0  0  0  0
   28.8940   31.3770   24.7430 C   0  0  0  0  0  0
   29.7360   30.8260   23.8460 C   0  0  0  0  0  0
   23.0470   30.6030   20.8420 C   0  0  0  0  0  0
   22.4640   28.5370   25.0440 C   0  0  0  0  0  0
   24.0700   32.1360   26.6290 C   0  0  0  0  0  0
   21.8100   36.7650   25.2100 C   0  0  0  0  0  0
   21.4340   21.4470   25.9070 C   0  0  0  0  0  0
   18.4440   30.5440   22.6150 N   0  0  0  0  0  0
   21.0270   29.2950   22.3810 O   0  0  0  0  0  0
   20.1330   27.5380   21.2870 O   0  0  0  0  0  0
   17.4380   29.6180   24.4570 O   0  0  0  0  0  0
   16.7210   32.5660   24.3060 O   0  0  0  0  0  0
   19.7840   32.9460   24.6080 O   0  0  0  0  0  0
   18.2770   33.3910   26.3670 O   0  0  0  0  0  0
   22.9240   33.0190   26.5510 O   0  0  0  0  0  0
   22.4570   35.5050   24.7910 O   0  0  0  0  0  0
   25.9730   30.3640   24.3760 O   0  0  0  0  0  0
   24.9100   28.1630   20.9360 O   0  0  0  0  0  0
   22.3820   21.9370   24.9510 O   0  0  0  0  0  0
   25.1840   21.8630   25.6250 O   0  0  0  0  0  0
   18.0446   28.5423   22.6625 H   0  0  0  0  0  0
   18.0953   28.4535   20.0039 H   0  0  0  0  0  0
   16.8914   29.6121   20.6633 H   0  0  0  0  0  0
   19.6740   30.3196   19.6064 H   0  0  0  0  0  0
   18.1116   30.5731   18.7573 H   0  0  0  0  0  0
   18.9129   32.6367   19.9160 H   0  0  0  0  0  0
   17.3412   32.0525   20.5604 H   0  0  0  0  0  0
   20.1179   31.5256   21.7650 H   0  0  0  0  0  0
   18.8564   32.6142   22.4360 H   0  0  0  0  0  0
   19.6834   30.3983   25.7319 H   0  0  0  0  0  0
   20.6154   32.4721   27.7954 H   0  0  0  0  0  0
   21.3686   30.8909   27.3967 H   0  0  0  0  0  0
   22.0776   31.7212   25.1802 H   0  0  0  0  0  0
   20.6469   34.2382   26.0678 H   0  0  0  0  0  0
   20.7851   35.0725   23.6836 H   0  0  0  0  0  0
   23.2476   33.2431   23.4825 H   0  0  0  0  0  0
   21.7130   32.9956   22.5823 H   0  0  0  0  0  0
   23.0057   33.7946   21.0333 H   0  0  0  0  0  0
   24.6363   35.8846   21.3227 H   0  0  0  0  0  0
   24.5020   35.5177   23.0760 H   0  0  0  0  0  0
   25.6270   33.6732   24.0219 H   0  0  0  0  0  0
   27.6518   32.1419   22.2493 H   0  0  0  0  0  0
   25.9301   30.7198   21.1256 H   0  0  0  0  0  0
   26.9695   29.4257   21.8125 H   0  0  0  0  0  0
   24.9838   28.4909   22.9453 H   0  0  0  0  0  0
   23.4854   30.4906   22.9598 H   0  0  0  0  0  0
   22.3916   27.9790   21.5229 H   0  0  0  0  0  0
   22.4081   26.0225   22.5979 H   0  0  0  0  0  0
   23.3281   25.9448   25.5921 H   0  0  0  0  0  0
   21.4948   24.4366   24.7830 H   0  0  0  0  0  0
   22.5045   23.9261   23.3879 H   0  0  0  0  0  0
   23.0477   23.3228   26.3669 H   0  0  0  0  0  0
   24.6395   22.6265   23.8124 H   0  0  0  0  0  0
   25.4942   24.5209   26.0750 H   0  0  0  0  0  0
   26.4887   24.0198   24.6655 H   0  0  0  0  0  0
   24.9281   25.1175   23.1080 H   0  0  0  0  0  0
   25.4077   26.2992   24.3729 H   0  0  0  0  0  0
   18.9781   29.9331   28.0433 H   0  0  0  0  0  0
   17.5981   30.2709   26.9442 H   0  0  0  0  0  0
   18.1514   31.5267   28.1033 H   0  0  0  0  0  0
   22.4757   36.1874   20.4743 H   0  0  0  0  0  0
   21.8155   36.3866   22.1329 H   0  0  0  0  0  0
   21.0532   35.2229   20.9965 H   0  0  0  0  0  0
   26.6578   32.8610   20.4310 H   0  0  0  0  0  0
   26.3958   34.5918   20.0283 H   0  0  0  0  0  0
   25.0601   33.4090   19.8196 H   0  0  0  0  0  0
   28.5171   33.4210   24.2345 H   0  0  0  0  0  0
   27.2797   32.6678   25.2967 H   0  0  0  0  0  0
   28.8790   31.0111   25.7802 H   0  0  0  0  0  0
   30.4081   30.0105   24.1513 H   0  0  0  0  0  0
   29.7510   31.1919   22.8088 H   0  0  0  0  0  0
   22.0509   31.0476   20.9836 H   0  0  0  0  0  0
   23.0300   29.9361   19.9674 H   0  0  0  0  0  0
   23.7854   31.4020   20.6796 H   0  0  0  0  0  0
   22.6334   27.7914   25.8348 H   0  0  0  0  0  0
   21.4652   28.9813   25.1668 H   0  0  0  0  0  0
   23.2274   29.3258   25.1142 H   0  0  0  0  0  0
   24.9061   32.6623   27.1126 H   0  0  0  0  0  0
   24.3668   31.8300   25.6150 H   0  0  0  0  0  0
   23.8071   31.2453   27.2186 H   0  0  0  0  0  0
   22.5605   37.4297   25.6626 H   0  0  0  0  0  0
   21.0228   36.5457   25.9463 H   0  0  0  0  0  0
   21.3649   37.2579   24.3331 H   0  0  0  0  0  0
   20.9512   20.5405   25.5131 H   0  0  0  0  0  0
   20.6710   22.2169   26.0945 H   0  0  0  0  0  0
   21.9520   21.2074   26.8474 H   0  0  0  0  0  0
   18.9322   33.8735   27.1072 H   0  0  0  0  0  0
   24.1194   27.4078   20.8154 H   0  0  0  0  0  0
   26.2336   21.5764   25.4629 H   0  0  0  0  0  0
  1  2  1  0  0  0
  1 46  1  0  0  0
  1 47  2  0  0  0
  2  3  1  0  0  0
  2 45  1  0  0  0
  2 58  1  0  0  0
  3  4  1  0  0  0
  3 59  1  0  0  0
  3 60  1  0  0  0
  4  5  1  0  0  0
  4 61  1  0  0  0
  4 62  1  0  0  0
  5  6  1  0  0  0
  5 63  1  0  0  0
  5 64  1  0  0  0
  6 45  1  0  0  0
  6 65  1  0  0  0
  6 66  1  0  0  0
  7  8  1  0  0  0
  7 45  1  0  0  0
  7 48  2  0  0  0
  8  9  1  0  0  0
  8 49  2  0  0  0
  9 10  1  0  0  0
  9 50  1  0  0  0
  9 51  1  0  0  0
 10 11  1  0  0  0
 10 34  1  0  0  0
 10 67  1  0  0  0
 11 12  1  0  0  0
 11 68  1  0  0  0
 11 69  1  0  0  0
 12 13  1  0  0  0
 12 52  1  0  0  0
 12 70  1  0  0  0
 13 14  1  0  0  0
 13 50  1  0  0  0
 13 71  1  0  0  0
 14 15  1  0  0  0
 14 53  1  0  0  0
 14 72  1  0  0  0
 15 16  1  0  0  0
 15 73  1  0  0  0
 15 74  1  0  0  0
 16 17  1  0  0  0
 16 35  1  0  0  0
 16 75  1  0  0  0
 17 18  1  0  0  0
 17 76  1  0  0  0
 17 77  1  0  0  0
 18 19  2  0  0  0
 18 36  1  0  0  0
 19 20  1  0  0  0
 19 78  1  0  0  0
 20 21  1  0  0  0
 20 37  1  0  0  0
 20 79  1  0  0  0
 21 22  1  0  0  0
 21 54  2  0  0  0
 22 23  1  0  0  0
 22 80  1  0  0  0
 22 81  1  0  0  0
 23 24  1  0  0  0
 23 55  1  0  0  0
 23 82  1  0  0  0
 24 25  1  0  0  0
 24 40  1  0  0  0
 24 83  1  0  0  0
 25 26  1  0  0  0
 25 46  1  0  0  0
 25 84  1  0  0  0
 26 27  2  0  0  0
 26 41  1  0  0  0
 27 28  1  0  0  0
 27 85  1  0  0  0
 28 29  1  0  0  0
 28 33  1  0  0  0
 28 86  1  0  0  0
 29 30  1  0  0  0
 29 87  1  0  0  0
 29 88  1  0  0  0
 30 31  1  0  0  0
 30 56  1  0  0  0
 30 89  1  0  0  0
 31 32  1  0  0  0
 31 57  1  0  0  0
 31 90  1  0  0  0
 32 33  1  0  0  0
 32 91  1  0  0  0
 32 92  1  0  0  0
 33 93  1  0  0  0
 33 94  1  0  0  0
 34 95  1  0  0  0
 34 96  1  0  0  0
 34 97  1  0  0  0
 35 98  1  0  0  0
 35 99  1  0  0  0
 35100  1  0  0  0
 36101  1  0  0  0
 36102  1  0  0  0
 36103  1  0  0  0
 37 38  1  0  0  0
 37104  1  0  0  0
 37105  1  0  0  0
 38 39  2  0  0  0
 38106  1  0  0  0
 39107  1  0  0  0
 39108  1  0  0  0
 40109  1  0  0  0
 40110  1  0  0  0
 40111  1  0  0  0
 41112  1  0  0  0
 41113  1  0  0  0
 41114  1  0  0  0
 42 52  1  0  0  0
 42115  1  0  0  0
 42116  1  0  0  0
 42117  1  0  0  0
 43 53  1  0  0  0
 43118  1  0  0  0
 43119  1  0  0  0
 43120  1  0  0  0
 44 56  1  0  0  0
 44121  1  0  0  0
 44122  1  0  0  0
 44123  1  0  0  0
 51124  1  0  0  0
 55125  1  0  0  0
 57126  1  0  0  0
M  END
