1YXQ
                    3D
 Structure written by MMmdl.
232236  0  0  1  0            999 V2000
   16.5377   61.5819   48.0954 O   0  0  0  0  0  0
   17.2447   62.4849   48.3614 C   0  0  0  0  0  0
   18.5677   62.1859   48.5104 O   0  0  0  0  0  0
   18.8647   60.7439   48.1854 C   0  0  2  0  0  0
   18.1987   60.1519   49.4664 C   0  0  2  0  0  0
   19.1517   59.5929   50.3904 C   0  0  2  0  0  0
   18.4787   58.8059   51.5504 C   0  0  2  0  0  0
   18.5607   57.3699   51.3574 C   0  0  0  0  0  0
   18.8337   56.5959   52.4514 C   0  0  0  0  0  0
   19.3777   55.2869   52.1124 C   0  0  2  0  0  0
   18.6777   54.5269   51.2524 O   0  0  0  0  0  0
   17.4087   54.0779   51.6254 C   0  0  1  0  0  0
   16.6497   53.3649   50.4964 C   0  0  0  0  0  0
   17.5187   53.1509   52.8234 C   0  0  0  0  0  0
   18.2477   53.8589   53.9584 C   0  0  1  0  0  0
   18.3227   52.9689   55.1384 O   0  0  0  0  0  0
   19.5637   52.2919   55.4864 C   0  0  0  0  0  0
   19.6317   54.3969   53.3504 C   0  0  0  0  0  0
   17.0837   59.1449   51.9864 C   0  0  0  0  0  0
   20.2977   60.4139   50.4664 O   0  0  0  0  0  0
   16.9767   59.3079   49.2924 C   0  0  0  0  0  0
   20.3167   60.8969   47.4894 C   0  0  1  0  0  0
   21.0257   59.5789   47.1844 C   0  0  0  0  0  0
   20.0897   61.7319   46.1654 C   0  0  2  0  0  0
   19.1347   60.9469   45.3924 O   0  0  0  0  0  0
   21.2747   62.0119   45.3164 C   0  0  0  0  0  0
   22.4207   62.7739   46.0374 C   0  0  2  0  0  0
   21.8717   63.8219   46.7534 O   0  0  0  0  0  0
   23.4717   63.3059   45.0554 C   0  0  2  0  0  0
   24.0647   62.1239   44.1924 C   0  0  0  0  0  0
   24.5207   64.0789   45.8084 C   0  0  1  0  0  0
   25.3097   63.0669   46.4684 O   0  0  0  0  0  0
   26.0597   63.5819   47.6084 C   0  0  0  0  0  0
   25.3027   65.0279   44.9324 C   0  0  0  0  0  0
   24.7127   66.3579   44.6054 C   0  0  2  0  0  0
   25.7137   67.2999   43.9474 C   0  0  0  0  0  0
   24.8147   68.4059   43.5624 C   0  0  0  0  0  0
   23.9837   68.8799   44.3884 C   0  0  0  0  0  0
   24.4957   67.0369   45.8594 O   0  0  0  0  0  0
   23.7987   68.3569   45.8274 C   0  0  2  0  0  0
   22.2927   68.1999   45.9314 C   0  0  0  0  0  0
   21.8797   67.5709   47.1864 C   0  0  1  0  0  0
   22.3397   68.4659   48.3194 O   0  0  0  0  0  0
   20.4777   67.3809   47.5524 C   0  0  0  0  0  0
   19.6237   66.3749   46.7934 C   0  0  0  0  0  0
   18.5747   66.6499   45.9414 C   0  0  0  0  0  0
   18.0097   68.0669   45.7774 C   0  0  0  0  0  0
   17.7637   65.7059   45.2194 C   0  0  0  0  0  0
   18.1537   64.6119   44.7194 C   0  0  0  0  0  0
   17.2577   63.5969   44.0134 C   0  0  0  0  0  0
   17.8457   62.6199   43.8034 O   0  0  0  0  0  0
   16.9667   63.9299   48.4764 C   0  0  0  0  0  0
   15.7187   64.5799   48.2924 C   0  0  0  0  0  0
   15.6227   66.0729   48.4004 C   0  0  0  0  0  0
   16.8207   66.6419   49.2034 C   0  0  0  0  0  0
   14.9057   66.9959   47.8624 C   0  0  0  0  0  0
   13.6787   67.2189   47.2034 C   0  0  0  0  0  0
   12.8367   67.8499   48.3194 C   0  0  1  0  0  0
   11.9147   68.8109   47.7184 O   0  0  0  0  0  0
   12.1647   66.9329   49.2874 C   0  0  0  0  0  0
   10.7207   67.1129   49.7214 C   0  0  1  0  0  0
    9.8177   66.2099   48.9084 O   0  0  0  0  0  0
    9.8907   64.8019   49.3744 C   0  0  1  0  0  0
    9.1687   64.9139   50.6814 C   0  0  0  0  0  0
    9.6317   65.9969   51.5164 C   0  0  0  0  0  0
   10.6577   66.7379   51.1934 C   0  0  0  0  0  0
    9.0197   64.0899   48.3654 C   0  0  0  0  0  0
    9.8087   63.7919   47.0734 C   0  0  2  0  0  0
    8.9807   63.3869   46.0094 O   0  0  0  0  0  0
    8.4287   64.6099   45.3114 C   0  0  0  0  0  0
   10.8697   62.6709   47.2794 C   0  0  1  0  0  0
   10.2167   61.3139   47.2354 C   0  0  0  0  0  0
   11.9677   62.8059   46.1354 C   0  0  1  0  0  0
   12.4737   64.1859   46.1584 O   0  0  0  0  0  0
   13.0207   61.8779   46.2924 C   0  0  0  0  0  0
   14.1547   62.0569   45.3674 C   0  0  1  0  0  0
   15.0377   60.9129   45.6434 O   0  0  0  0  0  0
   13.9217   62.1699   43.9224 C   0  0  2  0  0  0
   13.2497   60.9039   43.3264 C   0  0  0  0  0  0
   15.2667   62.5079   43.1684 C   0  0  2  0  0  0
   15.8877   63.7209   43.7314 O   0  0  0  0  0  0
   15.1097   62.5459   41.6654 C   0  0  1  0  0  0
   14.2407   63.7359   41.1884 C   0  0  0  0  0  0
   16.4697   62.3759   40.8964 C   0  0  1  0  0  0
   17.3967   61.5939   41.5454 O   0  0  0  0  0  0
   16.6697   62.0969   39.5074 C   0  0  2  0  0  0
   17.4937   63.2139   38.8004 C   0  0  0  0  0  0
   15.4257   61.6909   38.6894 C   0  0  0  0  0  0
   15.7377   61.3119   37.2584 C   0  0  0  0  0  0
   15.1547   59.9509   36.7784 C   0  0  2  0  0  0
   15.8827   58.8239   37.2684 O   0  0  0  0  0  0
   17.1897   58.6439   36.7764 C   0  0  1  0  0  0
   17.6877   57.3049   37.4204 C   0  0  0  0  0  0
   17.1727   58.5799   35.2114 C   0  0  0  0  0  0
   16.4807   59.7169   34.7004 C   0  0  2  0  0  0
   15.1297   59.9069   35.2614 C   0  0  0  0  0  0
   16.3267   59.6489   33.2044 O   0  0  0  0  0  0
   16.5937   60.7779   32.3204 C   0  0  0  0  0  0
   18.4911   59.9776   47.4902 H   0  0  0  0  0  0
   17.7818   61.0035   50.0240 H   0  0  0  0  0  0
   19.7922   58.8015   49.9740 H   0  0  0  0  0  0
   19.0853   59.0997   52.4196 H   0  0  0  0  0  0
   17.6005   56.9963   50.9718 H   0  0  0  0  0  0
   19.3591   57.1418   50.6360 H   0  0  0  0  0  0
   19.5725   57.1064   53.0866 H   0  0  0  0  0  0
   17.9090   56.4313   53.0241 H   0  0  0  0  0  0
   20.2358   55.5824   51.4909 H   0  0  0  0  0  0
   16.9133   55.0295   51.8683 H   0  0  0  0  0  0
   15.6645   53.0419   50.8639 H   0  0  0  0  0  0
   17.2238   52.4866   50.1662 H   0  0  0  0  0  0
   16.5171   54.0555   49.6505 H   0  0  0  0  0  0
   16.5110   52.8658   53.1602 H   0  0  0  0  0  0
   18.0790   52.2482   52.5383 H   0  0  0  0  0  0
   17.6761   54.6889   54.3992 H   0  0  0  0  0  0
   19.4085   51.6831   56.3893 H   0  0  0  0  0  0
   20.3477   53.0392   55.6783 H   0  0  0  0  0  0
   19.8724   51.6418   54.6545 H   0  0  0  0  0  0
   20.2510   53.5349   53.0615 H   0  0  0  0  0  0
   20.1543   54.9818   54.1215 H   0  0  0  0  0  0
   16.7867   58.4826   52.8129 H   0  0  0  0  0  0
   16.3924   59.0094   51.1415 H   0  0  0  0  0  0
   17.0492   60.1911   52.3243 H   0  0  0  0  0  0
   21.1308   60.1354   51.1284 H   0  0  0  0  0  0
   16.6244   58.9653   50.2766 H   0  0  0  0  0  0
   17.2189   58.4366   48.6661 H   0  0  0  0  0  0
   16.1877   59.9007   48.8065 H   0  0  0  0  0  0
   21.0334   61.3668   48.1788 H   0  0  0  0  0  0
   21.9988   59.7860   46.7153 H   0  0  0  0  0  0
   20.4080   58.9804   46.4986 H   0  0  0  0  0  0
   21.1808   59.0210   48.1196 H   0  0  0  0  0  0
   19.7422   62.7506   46.3920 H   0  0  0  0  0  0
   18.7966   61.3051   44.4088 H   0  0  0  0  0  0
   21.6996   61.0635   44.9557 H   0  0  0  0  0  0
   20.9726   62.6286   44.4571 H   0  0  0  0  0  0
   22.9145   62.1466   46.7942 H   0  0  0  0  0  0
   22.5221   64.4886   47.3385 H   0  0  0  0  0  0
   23.0114   64.0387   44.3763 H   0  0  0  0  0  0
   24.8160   62.5209   43.4939 H   0  0  0  0  0  0
   23.2548   61.6421   43.6249 H   0  0  0  0  0  0
   24.5363   61.3852   44.8572 H   0  0  0  0  0  0
   24.1052   64.7442   46.5796 H   0  0  0  0  0  0
   26.6377   62.7655   48.0660 H   0  0  0  0  0  0
   25.3609   63.9967   48.3498 H   0  0  0  0  0  0
   26.7459   64.3718   47.2691 H   0  0  0  0  0  0
   26.2643   65.2618   45.4124 H   0  0  0  0  0  0
   25.4856   64.5580   43.9547 H   0  0  0  0  0  0
   23.8133   66.1674   44.0013 H   0  0  0  0  0  0
   26.4841   67.5852   44.6788 H   0  0  0  0  0  0
   26.1880   66.7930   43.0941 H   0  0  0  0  0  0
   24.8737   68.8174   42.5440 H   0  0  0  0  0  0
   23.3352   69.7189   44.0961 H   0  0  0  0  0  0
   24.1951   68.9630   46.6553 H   0  0  0  0  0  0
   21.8161   69.1897   45.8761 H   0  0  0  0  0  0
   21.9314   67.5723   45.1034 H   0  0  0  0  0  0
   22.2794   66.5628   47.0020 H   0  0  0  0  0  0
   22.1331   68.1831   49.3622 H   0  0  0  0  0  0
   20.4138   67.0484   48.5990 H   0  0  0  0  0  0
   19.9362   68.3313   47.4359 H   0  0  0  0  0  0
   19.9198   65.3325   46.9826 H   0  0  0  0  0  0
   17.1831   68.0503   45.0518 H   0  0  0  0  0  0
   18.8023   68.7379   45.4150 H   0  0  0  0  0  0
   17.6386   68.4282   46.7478 H   0  0  0  0  0  0
   16.7117   66.0118   45.1205 H   0  0  0  0  0  0
   19.2152   64.3291   44.7751 H   0  0  0  0  0  0
   17.8601   64.5174   48.7344 H   0  0  0  0  0  0
   14.8181   63.9886   48.0699 H   0  0  0  0  0  0
   16.7305   67.7361   49.2704 H   0  0  0  0  0  0
   17.7602   66.3818   48.6939 H   0  0  0  0  0  0
   16.8211   66.2113   50.2156 H   0  0  0  0  0  0
   15.2687   68.0341   47.8444 H   0  0  0  0  0  0
   13.8389   67.8917   46.3480 H   0  0  0  0  0  0
   13.2752   66.2602   46.8453 H   0  0  0  0  0  0
   13.5187   68.3822   48.9987 H   0  0  0  0  0  0
   11.2175   69.3760   48.3545 H   0  0  0  0  0  0
   12.1664   65.9093   48.8845 H   0  0  0  0  0  0
   12.7052   66.9508   50.2452 H   0  0  0  0  0  0
   10.3816   68.1470   49.5618 H   0  0  0  0  0  0
   10.8764   64.3238   49.4738 H   0  0  0  0  0  0
    8.0976   65.0821   50.4954 H   0  0  0  0  0  0
    9.2997   63.9836   51.2536 H   0  0  0  0  0  0
    8.8267   66.7368   51.6370 H   0  0  0  0  0  0
    9.9182   65.6028   52.5026 H   0  0  0  0  0  0
   11.5610   66.1729   51.4668 H   0  0  0  0  0  0
   10.5985   67.6519   51.8024 H   0  0  0  0  0  0
    8.6662   63.1395   48.7920 H   0  0  0  0  0  0
    8.1558   64.7232   48.1150 H   0  0  0  0  0  0
   10.2405   64.7457   46.7363 H   0  0  0  0  0  0
    7.7811   64.2962   44.4793 H   0  0  0  0  0  0
    9.2597   65.2156   44.9210 H   0  0  0  0  0  0
    7.8437   65.2072   46.0262 H   0  0  0  0  0  0
   11.3133   62.7436   48.2833 H   0  0  0  0  0  0
   10.9794   60.5350   47.3824 H   0  0  0  0  0  0
    9.7313   61.1720   46.2585 H   0  0  0  0  0  0
    9.4626   61.2438   48.0331 H   0  0  0  0  0  0
   11.6149   62.5633   45.1221 H   0  0  0  0  0  0
   13.2480   64.4997   45.4429 H   0  0  0  0  0  0
   13.4301   61.9566   47.3103 H   0  0  0  0  0  0
   12.6392   60.8592   46.1284 H   0  0  0  0  0  0
   14.5562   63.0607   45.5698 H   0  0  0  0  0  0
   15.9771   60.7955   45.0833 H   0  0  0  0  0  0
   13.2012   62.9976   43.8468 H   0  0  0  0  0  0
   13.0993   61.0429   42.2456 H   0  0  0  0  0  0
   12.2772   60.7410   43.8139 H   0  0  0  0  0  0
   13.8963   60.0306   43.4973 H   0  0  0  0  0  0
   16.0224   61.7247   43.3279 H   0  0  0  0  0  0
   14.5178   61.6489   41.4306 H   0  0  0  0  0  0
   14.1602   63.7146   40.0915 H   0  0  0  0  0  0
   14.7078   64.6805   41.5035 H   0  0  0  0  0  0
   13.2368   63.6575   41.6313 H   0  0  0  0  0  0
   16.7478   63.4395   40.8618 H   0  0  0  0  0  0
   18.3810   61.4142   41.0885 H   0  0  0  0  0  0
   17.2496   61.1708   39.6346 H   0  0  0  0  0  0
   17.6222   62.9581   37.7383 H   0  0  0  0  0  0
   18.4804   63.3001   39.2788 H   0  0  0  0  0  0
   16.9602   64.1721   38.8848 H   0  0  0  0  0  0
   14.9442   60.8217   39.1613 H   0  0  0  0  0  0
   14.7165   62.5312   38.6589 H   0  0  0  0  0  0
   15.3329   62.0772   36.5798 H   0  0  0  0  0  0
   16.8276   61.2442   37.1263 H   0  0  0  0  0  0
   14.1517   59.8027   37.2050 H   0  0  0  0  0  0
   17.7809   59.5192   37.0834 H   0  0  0  0  0  0
   18.7123   57.0935   37.0807 H   0  0  0  0  0  0
   17.0235   56.4824   37.1162 H   0  0  0  0  0  0
   17.6767   57.3988   38.5163 H   0  0  0  0  0  0
   18.2056   58.5771   34.8333 H   0  0  0  0  0  0
   16.6612   57.6614   34.8875 H   0  0  0  0  0  0
   17.1345   60.5331   35.0414 H   0  0  0  0  0  0
   14.4956   59.0716   34.9292 H   0  0  0  0  0  0
   14.7230   60.8526   34.8738 H   0  0  0  0  0  0
   16.4093   60.4789   31.2780 H   0  0  0  0  0  0
   17.6422   61.0910   32.4321 H   0  0  0  0  0  0
   15.9308   61.6150   32.5844 H   0  0  0  0  0  0
  1  2  2  0  0  0
  2  3  1  0  0  0
  2 52  1  0  0  0
  3  4  1  0  0  0
  4  5  1  0  0  0
  4 22  1  0  0  0
  4 99  1  0  0  0
  5  6  1  0  0  0
  5 21  1  0  0  0
  5100  1  0  0  0
  6  7  1  0  0  0
  6 20  1  0  0  0
  6101  1  0  0  0
  7  8  1  0  0  0
  7 19  1  0  0  0
  7102  1  0  0  0
  8  9  1  0  0  0
  8103  1  0  0  0
  8104  1  0  0  0
  9 10  1  0  0  0
  9105  1  0  0  0
  9106  1  0  0  0
 10 11  1  0  0  0
 10 18  1  0  0  0
 10107  1  0  0  0
 11 12  1  0  0  0
 12 13  1  0  0  0
 12 14  1  0  0  0
 12108  1  0  0  0
 13109  1  0  0  0
 13110  1  0  0  0
 13111  1  0  0  0
 14 15  1  0  0  0
 14112  1  0  0  0
 14113  1  0  0  0
 15 16  1  0  0  0
 15 18  1  0  0  0
 15114  1  0  0  0
 16 17  1  0  0  0
 17115  1  0  0  0
 17116  1  0  0  0
 17117  1  0  0  0
 18118  1  0  0  0
 18119  1  0  0  0
 19120  1  0  0  0
 19121  1  0  0  0
 19122  1  0  0  0
 20123  1  0  0  0
 21124  1  0  0  0
 21125  1  0  0  0
 21126  1  0  0  0
 22 23  1  0  0  0
 22 24  1  0  0  0
 22127  1  0  0  0
 23128  1  0  0  0
 23129  1  0  0  0
 23130  1  0  0  0
 24 25  1  0  0  0
 24 26  1  0  0  0
 24131  1  0  0  0
 25132  1  0  0  0
 26 27  1  0  0  0
 26133  1  0  0  0
 26134  1  0  0  0
 27 28  1  0  0  0
 27 29  1  0  0  0
 27135  1  0  0  0
 28136  1  0  0  0
 29 30  1  0  0  0
 29 31  1  0  0  0
 29137  1  0  0  0
 30138  1  0  0  0
 30139  1  0  0  0
 30140  1  0  0  0
 31 32  1  0  0  0
 31 34  1  0  0  0
 31141  1  0  0  0
 32 33  1  0  0  0
 33142  1  0  0  0
 33143  1  0  0  0
 33144  1  0  0  0
 34 35  1  0  0  0
 34145  1  0  0  0
 34146  1  0  0  0
 35 36  1  0  0  0
 35 39  1  0  0  0
 35147  1  0  0  0
 36 37  1  0  0  0
 36148  1  0  0  0
 36149  1  0  0  0
 37 38  2  0  0  0
 37150  1  0  0  0
 38 40  1  0  0  0
 38151  1  0  0  0
 39 40  1  0  0  0
 40 41  1  0  0  0
 40152  1  0  0  0
 41 42  1  0  0  0
 41153  1  0  0  0
 41154  1  0  0  0
 42 43  1  0  0  0
 42 44  1  0  0  0
 42155  1  0  0  0
 43156  1  0  0  0
 44 45  1  0  0  0
 44157  1  0  0  0
 44158  1  0  0  0
 45 46  2  0  0  0
 45159  1  0  0  0
 46 47  1  0  0  0
 46 48  1  0  0  0
 47160  1  0  0  0
 47161  1  0  0  0
 47162  1  0  0  0
 48 49  2  0  0  0
 48163  1  0  0  0
 49 50  1  0  0  0
 49164  1  0  0  0
 50 51  2  0  0  0
 50 81  1  0  0  0
 52 53  2  0  0  0
 52165  1  0  0  0
 53 54  1  0  0  0
 53166  1  0  0  0
 54 55  1  0  0  0
 54 56  2  0  0  0
 55167  1  0  0  0
 55168  1  0  0  0
 55169  1  0  0  0
 56 57  1  0  0  0
 56170  1  0  0  0
 57 58  1  0  0  0
 57171  1  0  0  0
 57172  1  0  0  0
 58 59  1  0  0  0
 58 60  1  0  0  0
 58173  1  0  0  0
 59174  1  0  0  0
 60 61  1  0  0  0
 60175  1  0  0  0
 60176  1  0  0  0
 61 62  1  0  0  0
 61 66  1  0  0  0
 61177  1  0  0  0
 62 63  1  0  0  0
 63 64  1  0  0  0
 63 67  1  0  0  0
 63178  1  0  0  0
 64 65  1  0  0  0
 64179  1  0  0  0
 64180  1  0  0  0
 65 66  1  0  0  0
 65181  1  0  0  0
 65182  1  0  0  0
 66183  1  0  0  0
 66184  1  0  0  0
 67 68  1  0  0  0
 67185  1  0  0  0
 67186  1  0  0  0
 68 69  1  0  0  0
 68 71  1  0  0  0
 68187  1  0  0  0
 69 70  1  0  0  0
 70188  1  0  0  0
 70189  1  0  0  0
 70190  1  0  0  0
 71 72  1  0  0  0
 71 73  1  0  0  0
 71191  1  0  0  0
 72192  1  0  0  0
 72193  1  0  0  0
 72194  1  0  0  0
 73 74  1  0  0  0
 73 75  1  0  0  0
 73195  1  0  0  0
 74196  1  0  0  0
 75 76  1  0  0  0
 75197  1  0  0  0
 75198  1  0  0  0
 76 77  1  0  0  0
 76 78  1  0  0  0
 76199  1  0  0  0
 77200  1  0  0  0
 78 79  1  0  0  0
 78 80  1  0  0  0
 78201  1  0  0  0
 79202  1  0  0  0
 79203  1  0  0  0
 79204  1  0  0  0
 80 81  1  0  0  0
 80 82  1  0  0  0
 80205  1  0  0  0
 82 83  1  0  0  0
 82 84  1  0  0  0
 82206  1  0  0  0
 83207  1  0  0  0
 83208  1  0  0  0
 83209  1  0  0  0
 84 85  1  0  0  0
 84 86  1  0  0  0
 84210  1  0  0  0
 85211  1  0  0  0
 86 87  1  0  0  0
 86 88  1  0  0  0
 86212  1  0  0  0
 87213  1  0  0  0
 87214  1  0  0  0
 87215  1  0  0  0
 88 89  1  0  0  0
 88216  1  0  0  0
 88217  1  0  0  0
 89 90  1  0  0  0
 89218  1  0  0  0
 89219  1  0  0  0
 90 91  1  0  0  0
 90 96  1  0  0  0
 90220  1  0  0  0
 91 92  1  0  0  0
 92 93  1  0  0  0
 92 94  1  0  0  0
 92221  1  0  0  0
 93222  1  0  0  0
 93223  1  0  0  0
 93224  1  0  0  0
 94 95  1  0  0  0
 94225  1  0  0  0
 94226  1  0  0  0
 95 96  1  0  0  0
 95 97  1  0  0  0
 95227  1  0  0  0
 96228  1  0  0  0
 96229  1  0  0  0
 97 98  1  0  0  0
 98230  1  0  0  0
 98231  1  0  0  0
 98232  1  0  0  0
M  END
