1KEG
                    3D
 Structure written by MMmdl.
127135  0  0  1  0            999 V2000
    9.3320   23.1290   68.0080 O   0  0  0  0  0  0
    9.3920   24.1280   66.9840 C   0  0  0  0  0  0
    9.0430   25.4880   67.5530 C   0  0  1  0  0  0
    9.8200   25.7320   68.7430 O   0  0  0  0  0  0
    9.3620   26.6390   66.6100 C   0  0  1  0  0  0
    8.4080   27.6960   66.7830 O   0  0  0  0  0  0
   10.7780   27.0310   67.0000 C   0  0  0  0  0  0
   10.8870   26.6330   68.4700 C   0  0  2  0  0  0
   12.1350   25.9240   68.8180 N   0  0  0  0  0  0
   13.2620   26.6500   69.1390 C   0  0  0  0  0  0
   13.3100   27.8680   69.0950 O   0  0  0  0  0  0
   14.3430   25.8850   69.5110 N   0  0  0  0  0  0
   14.4110   24.5010   69.5710 C   0  0  0  0  0  0
   15.4470   23.9520   69.9460 O   0  0  0  0  0  0
   13.2060   23.8070   69.1730 C   0  0  0  0  0  0
   13.1940   22.3110   69.1590 C   0  0  0  0  0  0
   12.1450   24.5440   68.8290 C   0  0  0  0  0  0
    7.8270   28.4560   65.4940 P   0  0  0  0  0  0
    6.7080   29.3370   65.9060 O   0  0  0  0  0  0
    7.6080   27.4430   64.4320 O   0  5  0  0  0  0
    9.0450   29.3880   65.0750 O   0  0  0  0  0  0
    9.7230   30.1600   66.0610 C   0  0  0  0  0  0
   10.6250   31.1750   65.4040 C   0  0  1  0  0  0
   11.7900   30.4470   64.9400 O   0  0  0  0  0  0
    9.9970   31.8150   64.1680 C   0  0  1  0  0  0
    9.6120   33.1790   64.2740 O   0  0  0  0  0  0
   11.0480   31.7000   63.0870 C   0  0  0  0  0  0
   12.1890   30.8850   63.6570 C   0  0  2  0  0  0
   12.4870   29.7020   62.7490 N   0  0  0  0  0  0
   13.7000   29.4210   62.4010 C   0  0  0  0  0  0
   14.6880   30.0750   62.7760 O   0  0  0  0  0  0
   13.9120   28.3420   61.5520 N   0  0  0  0  0  0
   12.8930   27.5290   61.0330 C   0  0  0  0  0  0
   13.1290   26.7850   60.1240 O   0  0  0  0  0  0
   11.5310   27.6420   61.6600 C   0  0  2  0  0  0
   11.4440   26.6530   62.8190 C   0  0  0  0  0  0
   10.5370   27.3380   60.6850 O   0  0  0  0  0  0
   11.2560   29.0810   62.1850 C   0  0  2  0  0  0
    8.3690   33.6860   63.3860 P   0  0  0  0  0  0
    8.0100   35.0570   63.8080 O   0  0  0  0  0  0
    7.3470   32.6150   63.4570 O   0  5  0  0  0  0
    8.9180   33.6860   61.8780 O   0  0  0  0  0  0
    9.3820   34.8870   61.2320 C   0  0  0  0  0  0
    8.9610   34.9150   59.7750 C   0  0  1  0  0  0
    9.8660   34.1470   58.9460 O   0  0  0  0  0  0
    7.5640   34.3570   59.5150 C   0  0  1  0  0  0
    6.6980   35.2430   58.8170 O   0  0  0  0  0  0
    7.7690   33.0760   58.7230 C   0  0  0  0  0  0
    9.2590   32.9420   58.5000 C   0  0  2  0  0  0
    9.7920   31.8840   59.4250 N   0  0  0  0  0  0
   11.1180   31.6440   59.5120 C   0  0  0  0  0  0
   11.9330   32.2720   58.8120 O   0  0  0  0  0  0
   11.5560   30.7040   60.4090 N   0  0  0  0  0  0
   10.6530   30.0590   61.1540 C   0  0  0  0  0  0
    9.2750   30.2660   61.0690 C   0  0  0  0  0  0
    8.2150   29.5680   61.8880 C   0  0  0  0  0  0
    8.8840   31.2000   60.1830 C   0  0  0  0  0  0
    5.1200   35.1380   59.0850 P   0  0  0  0  0  0
    4.8660   33.6860   59.2740 O   0  0  0  0  0  0
    4.3700   35.8840   58.0420 O   0  5  0  0  0  0
    4.9210   35.8800   60.4830 O   0  0  0  0  0  0
    5.3950   35.2990   61.6970 C   0  0  0  0  0  0
    4.9310   36.1100   62.8870 C   0  0  1  0  0  0
    3.5340   36.4170   62.7280 O   0  0  0  0  0  0
    5.0260   35.3500   64.2070 C   0  0  1  0  0  0
    5.1840   36.2470   65.3100 O   0  0  0  0  0  0
    3.7010   34.6160   64.2740 C   0  0  0  0  0  0
    2.7460   35.4610   63.4250 C   0  0  2  0  0  0
    2.0100   34.6970   62.3900 N   0  0  0  0  0  0
    2.1370   33.3090   62.3150 C   0  0  0  0  0  0
    2.7880   32.6310   63.1150 O   0  0  0  0  0  0
    1.4580   32.7300   61.2540 N   0  0  0  0  0  0
    0.6810   33.3770   60.2950 C   0  0  0  0  0  0
    0.1380   32.7200   59.3890 O   0  0  0  0  0  0
    0.5740   34.8180   60.4540 C   0  0  0  0  0  0
   -0.2500   35.6000   59.4720 C   0  0  0  0  0  0
    1.2300   35.3920   61.4810 C   0  0  0  0  0  0
    9.5550   22.2733   67.6343 H   0  0  0  0  0  0
   10.3996   24.1644   66.5698 H   0  0  0  0  0  0
    8.6834   23.8816   66.1933 H   0  0  0  0  0  0
    7.9906   25.5047   67.8362 H   0  0  0  0  0  0
    9.3492   26.2804   65.5808 H   0  0  0  0  0  0
   11.4900   26.4901   66.3767 H   0  0  0  0  0  0
   10.9113   28.1032   66.8563 H   0  0  0  0  0  0
   10.8253   27.4856   69.1463 H   0  0  0  0  0  0
   15.2085   26.3307   69.7799 H   0  0  0  0  0  0
   12.2144   21.9580   68.8369 H   0  0  0  0  0  0
   13.9556   21.9475   68.4691 H   0  0  0  0  0  0
   13.4033   21.9361   70.1608 H   0  0  0  0  0  0
   11.2582   23.9953   68.5481 H   0  0  0  0  0  0
    8.9930   30.6817   66.6800 H   0  0  0  0  0  0
   10.3256   29.5021   66.6872 H   0  0  0  0  0  0
   10.9583   31.9002   66.1464 H   0  0  0  0  0  0
    9.0913   31.2722   63.8976 H   0  0  0  0  0  0
   10.6208   31.2040   62.2155 H   0  0  0  0  0  0
   11.3913   32.6956   62.8059 H   0  0  0  0  0  0
   13.0894   31.4931   63.7438 H   0  0  0  0  0  0
   14.8506   28.0986   61.2693 H   0  0  0  0  0  0
   10.4608   26.7233   63.2843 H   0  0  0  0  0  0
   11.5971   25.6405   62.4456 H   0  0  0  0  0  0
   12.2119   26.8878   63.5561 H   0  0  0  0  0  0
    9.6660   27.4093   61.0823 H   0  0  0  0  0  0
   10.4466   29.1528   62.9115 H   0  0  0  0  0  0
    8.9601   35.7570   61.7351 H   0  0  0  0  0  0
   10.4699   34.9305   61.2830 H   0  0  0  0  0  0
    8.9465   35.9455   59.4202 H   0  0  0  0  0  0
    7.0960   34.0915   60.4629 H   0  0  0  0  0  0
    7.3832   32.2304   59.2925 H   0  0  0  0  0  0
    7.2383   33.1464   57.7735 H   0  0  0  0  0  0
    9.4055   32.8370   57.4250 H   0  0  0  0  0  0
    7.2307   29.9368   61.5994 H   0  0  0  0  0  0
    8.2665   28.4938   61.7102 H   0  0  0  0  0  0
    8.3818   29.7690   62.9462 H   0  0  0  0  0  0
    7.8289   31.4048   60.0773 H   0  0  0  0  0  0
    5.0104   34.2832   61.7887 H   0  0  0  0  0  0
    6.4847   35.2749   61.6877 H   0  0  0  0  0  0
    5.4649   37.0600   62.9103 H   0  0  0  0  0  0
    5.8895   34.6852   64.1828 H   0  0  0  0  0  0
    5.2411   35.7446   66.1260 H   0  0  0  0  0  0
    3.8209   33.6110   63.8694 H   0  0  0  0  0  0
    3.3722   34.5526   65.3113 H   0  0  0  0  0  0
    1.9935   35.9758   64.0224 H   0  0  0  0  0  0
    1.4974   31.7305   61.1143 H   0  0  0  0  0  0
   -0.2234   36.6574   59.7353 H   0  0  0  0  0  0
    0.1548   35.4656   58.4689 H   0  0  0  0  0  0
   -1.2804   35.2455   59.4979 H   0  0  0  0  0  0
    1.1191   36.4624   61.5719 H   0  0  0  0  0  0
  1  2  1  0  0  0
  1 78  1  0  0  0
  2  3  1  0  0  0
  2 79  1  0  0  0
  2 80  1  0  0  0
  3  4  1  0  0  0
  3  5  1  0  0  0
  3 81  1  0  0  0
  4  8  1  0  0  0
  5  6  1  0  0  0
  5  7  1  0  0  0
  5 82  1  0  0  0
  6 18  1  0  0  0
  7  8  1  0  0  0
  7 83  1  0  0  0
  7 84  1  0  0  0
  8  9  1  0  0  0
  8 85  1  0  0  0
  9 10  1  0  0  0
  9 17  1  0  0  0
 10 11  2  0  0  0
 10 12  1  0  0  0
 12 13  1  0  0  0
 12 86  1  0  0  0
 13 14  2  0  0  0
 13 15  1  0  0  0
 15 16  1  0  0  0
 15 17  2  0  0  0
 16 87  1  0  0  0
 16 88  1  0  0  0
 16 89  1  0  0  0
 17 90  1  0  0  0
 18 19  2  0  0  0
 18 20  1  0  0  0
 18 21  1  0  0  0
 21 22  1  0  0  0
 22 23  1  0  0  0
 22 91  1  0  0  0
 22 92  1  0  0  0
 23 24  1  0  0  0
 23 25  1  0  0  0
 23 93  1  0  0  0
 24 28  1  0  0  0
 25 26  1  0  0  0
 25 27  1  0  0  0
 25 94  1  0  0  0
 26 39  1  0  0  0
 27 28  1  0  0  0
 27 95  1  0  0  0
 27 96  1  0  0  0
 28 29  1  0  0  0
 28 97  1  0  0  0
 29 30  1  0  0  0
 29 38  1  0  0  0
 30 31  2  0  0  0
 30 32  1  0  0  0
 32 33  1  0  0  0
 32 98  1  0  0  0
 33 34  2  0  0  0
 33 35  1  0  0  0
 35 36  1  0  0  0
 35 37  1  0  0  0
 35 38  1  0  0  0
 36 99  1  0  0  0
 36100  1  0  0  0
 36101  1  0  0  0
 37102  1  0  0  0
 38 54  1  0  0  0
 38103  1  0  0  0
 39 40  2  0  0  0
 39 41  1  0  0  0
 39 42  1  0  0  0
 42 43  1  0  0  0
 43 44  1  0  0  0
 43104  1  0  0  0
 43105  1  0  0  0
 44 45  1  0  0  0
 44 46  1  0  0  0
 44106  1  0  0  0
 45 49  1  0  0  0
 46 47  1  0  0  0
 46 48  1  0  0  0
 46107  1  0  0  0
 47 58  1  0  0  0
 48 49  1  0  0  0
 48108  1  0  0  0
 48109  1  0  0  0
 49 50  1  0  0  0
 49110  1  0  0  0
 50 51  1  0  0  0
 50 57  1  0  0  0
 51 52  2  0  0  0
 51 53  1  0  0  0
 53 54  2  0  0  0
 54 55  1  0  0  0
 55 56  1  0  0  0
 55 57  2  0  0  0
 56111  1  0  0  0
 56112  1  0  0  0
 56113  1  0  0  0
 57114  1  0  0  0
 58 59  2  0  0  0
 58 60  1  0  0  0
 58 61  1  0  0  0
 61 62  1  0  0  0
 62 63  1  0  0  0
 62115  1  0  0  0
 62116  1  0  0  0
 63 64  1  0  0  0
 63 65  1  0  0  0
 63117  1  0  0  0
 64 68  1  0  0  0
 65 66  1  0  0  0
 65 67  1  0  0  0
 65118  1  0  0  0
 66119  1  0  0  0
 67 68  1  0  0  0
 67120  1  0  0  0
 67121  1  0  0  0
 68 69  1  0  0  0
 68122  1  0  0  0
 69 70  1  0  0  0
 69 77  1  0  0  0
 70 71  2  0  0  0
 70 72  1  0  0  0
 72 73  1  0  0  0
 72123  1  0  0  0
 73 74  2  0  0  0
 73 75  1  0  0  0
 75 76  1  0  0  0
 75 77  2  0  0  0
 76124  1  0  0  0
 76125  1  0  0  0
 76126  1  0  0  0
 77127  1  0  0  0
M  CHG  3  20  -1  41  -1  60  -1
M  END
