1QZ5
                    3D
 Structure written by MMmdl.
138141  0  0  1  0            999 V2000
   19.4672   59.9033   53.3550 O   0  0  0  0  0  0
   18.9032   61.2193   53.5340 C   0  0  1  0  0  0
   17.4082   61.0743   53.4140 C   0  0  0  0  0  0
   16.7262   60.4313   52.2320 C   0  0  1  0  0  0
   15.3482   59.9763   52.5430 C   0  0  0  0  0  0
   17.1292   60.9693   50.8850 C   0  0  0  0  0  0
   16.6632   60.2723   49.6100 C   0  0  2  0  0  0
   17.3872   59.0283   49.5890 O   0  0  0  0  0  0
   16.6982   57.8603   49.8530 C   0  0  0  0  0  0
   17.5222   56.8683   49.3600 N   0  0  0  0  0  0
   15.4702   57.7183   49.8620 O   0  0  0  0  0  0
   16.7622   61.1303   48.3660 C   0  0  0  0  0  0
   16.2252   60.3263   47.2350 C   0  0  0  0  0  0
   15.1272   59.7903   47.2610 O   0  0  0  0  0  0
   16.9522   60.5553   46.1290 O   0  0  0  0  0  0
   19.4402   61.9373   54.7610 C   0  0  2  0  0  0
   18.9012   63.3543   54.7810 C   0  0  0  0  0  0
   20.9612   62.0793   54.8940 C   0  0  1  0  0  0
   21.3882   60.7253   55.0230 O   0  0  0  0  0  0
   22.6782   60.4743   55.5800 C   0  0  0  0  0  0
   21.7292   62.6943   53.7940 C   0  0  0  0  0  0
   22.2612   63.9543   53.7850 C   0  0  0  0  0  0
   22.8292   64.1073   52.5540 O   0  0  0  0  0  0
   21.8642   62.0773   52.5440 N   0  0  0  0  0  0
   22.4902   62.9723   51.8000 C   0  0  0  0  0  0
   23.0842   62.9043   50.5090 C   0  0  0  0  0  0
   23.8642   63.7463   49.7370 C   0  0  0  0  0  0
   23.9592   63.1323   48.4970 O   0  0  0  0  0  0
   22.6262   61.8723   49.6860 N   0  0  0  0  0  0
   23.1782   61.9403   48.5040 C   0  0  0  0  0  0
   23.0212   61.3443   47.2190 C   0  0  0  0  0  0
   22.0322   60.3373   47.2680 N   0  0  0  0  0  0
   23.7922   61.5453   46.0950 C   0  0  0  0  0  0
   23.1142   60.6733   45.2630 O   0  0  0  0  0  0
   22.1872   59.9293   46.0130 C   0  0  0  0  0  0
   21.3512   58.9823   45.3100 C   0  0  0  0  0  0
   20.3002   58.4963   45.9810 C   0  0  0  0  0  0
   19.3982   57.5113   45.3070 C   0  0  0  0  0  0
   17.9072   57.9013   45.3510 C   0  0  2  0  0  0
   16.8512   56.9553   45.0470 O   0  0  0  0  0  0
   16.2732   56.3513   46.1970 C   0  0  0  0  0  0
   17.6452   59.0943   44.4040 C   0  0  1  0  0  0
   17.4102   58.6163   42.9820 C   0  0  0  0  0  0
   16.5062   60.0253   44.8570 C   0  0  2  0  0  0
   16.2812   61.1833   43.8890 C   0  0  0  0  0  0
   15.3132   62.2413   44.4200 C   0  0  2  0  0  0
   14.0462   61.5973   44.5930 O   0  0  0  0  0  0
   13.1532   62.1743   45.5420 C   0  0  0  0  0  0
   15.1492   63.4823   43.5510 C   0  0  1  0  0  0
   16.4632   64.2203   43.5880 C   0  0  0  0  0  0
   14.7232   63.1273   42.1380 C   0  0  0  0  0  0
   14.3492   64.3053   41.2860 C   0  0  0  0  0  0
   13.7542   63.9223   39.9650 C   0  0  0  0  0  0
   14.0572   62.8433   39.4430 O   0  0  0  0  0  0
   13.2742   65.0423   39.0860 C   0  0  2  0  0  0
   11.8232   64.7123   38.7860 C   0  0  0  0  0  0
   14.0502   65.2223   37.7740 C   0  0  2  0  0  0
   15.4332   65.3743   38.1360 O   0  0  0  0  0  0
   16.4042   64.4053   37.7480 C   0  0  0  0  0  0
   13.5942   66.4483   36.9630 C   0  0  2  0  0  0
   14.1272   66.3733   35.5390 C   0  0  0  0  0  0
   13.9012   67.7413   37.6500 C   0  0  0  0  0  0
   12.8102   68.4323   38.0460 C   0  0  0  0  0  0
   13.0402   69.6523   38.7200 N   0  0  0  0  0  0
   14.3152   70.0873   39.2380 C   0  0  0  0  0  0
   11.9272   70.3953   39.0790 C   0  0  0  0  0  0
   11.9672   71.4763   39.6590 O   0  0  0  0  0  0
   20.5569   59.7609   53.4019 H   0  0  0  0  0  0
   19.2492   61.8719   52.7189 H   0  0  0  0  0  0
   17.0296   60.4725   54.2534 H   0  0  0  0  0  0
   16.9403   62.0696   53.4361 H   0  0  0  0  0  0
   17.1309   59.4285   52.0304 H   0  0  0  0  0  0
   14.9027   59.5178   51.6479 H   0  0  0  0  0  0
   14.7394   60.8376   52.8554 H   0  0  0  0  0  0
   15.3812   59.2363   53.3562 H   0  0  0  0  0  0
   16.7564   61.9983   50.7747 H   0  0  0  0  0  0
   18.2260   60.9658   50.8020 H   0  0  0  0  0  0
   15.5939   60.0143   49.6017 H   0  0  0  0  0  0
   17.2193   55.8135   49.4359 H   0  0  0  0  0  0
   18.4816   57.1326   48.8913 H   0  0  0  0  0  0
   16.1705   62.0471   48.5050 H   0  0  0  0  0  0
   17.8143   61.3965   48.1870 H   0  0  0  0  0  0
   19.0990   61.2925   55.5844 H   0  0  0  0  0  0
   19.2860   63.8804   55.6671 H   0  0  0  0  0  0
   17.8021   63.3280   54.8187 H   0  0  0  0  0  0
   19.2244   63.8824   53.8718 H   0  0  0  0  0  0
   21.2086   62.7478   55.7318 H   0  0  0  0  0  0
   22.8589   59.3897   55.6123 H   0  0  0  0  0  0
   22.7232   60.8841   56.5998 H   0  0  0  0  0  0
   23.4465   60.9556   54.9571 H   0  0  0  0  0  0
   22.1692   64.5855   54.6565 H   0  0  0  0  0  0
   24.2490   64.6632   50.1584 H   0  0  0  0  0  0
   24.6222   62.2356   46.1259 H   0  0  0  0  0  0
   21.5419   58.6574   44.2766 H   0  0  0  0  0  0
   20.1089   58.8218   47.0142 H   0  0  0  0  0  0
   19.6807   57.4205   44.2478 H   0  0  0  0  0  0
   19.4938   56.5312   45.7973 H   0  0  0  0  0  0
   17.7624   58.0210   46.4349 H   0  0  0  0  0  0
   15.4846   55.6503   45.8858 H   0  0  0  0  0  0
   15.8384   57.1300   46.8408 H   0  0  0  0  0  0
   17.0494   55.8061   46.7541 H   0  0  0  0  0  0
   18.5608   59.7036   44.4221 H   0  0  0  0  0  0
   17.2266   59.4827   42.3296 H   0  0  0  0  0  0
   16.5364   57.9485   42.9594 H   0  0  0  0  0  0
   18.2974   58.0714   42.6270 H   0  0  0  0  0  0
   15.5494   59.4927   44.9618 H   0  0  0  0  0  0
   17.2395   61.6845   43.6878 H   0  0  0  0  0  0
   15.8641   60.7979   42.9469 H   0  0  0  0  0  0
   15.6795   62.6061   45.3909 H   0  0  0  0  0  0
   12.2242   61.5862   45.5759 H   0  0  0  0  0  0
   12.9221   63.2083   45.2464 H   0  0  0  0  0  0
   13.6241   62.1736   46.5361 H   0  0  0  0  0  0
   14.3506   64.1336   43.9359 H   0  0  0  0  0  0
   16.3913   65.1282   42.9711 H   0  0  0  0  0  0
   17.2593   63.5714   43.1941 H   0  0  0  0  0  0
   16.6977   64.4997   44.6258 H   0  0  0  0  0  0
   15.5480   62.6107   41.6253 H   0  0  0  0  0  0
   13.8439   62.4673   42.1750 H   0  0  0  0  0  0
   13.6066   64.9200   41.8159 H   0  0  0  0  0  0
   15.2456   64.9088   41.0809 H   0  0  0  0  0  0
   13.4192   65.9867   39.6311 H   0  0  0  0  0  0
   11.3954   65.4934   38.1403 H   0  0  0  0  0  0
   11.2561   64.6634   39.7273 H   0  0  0  0  0  0
   11.7666   63.7409   38.2730 H   0  0  0  0  0  0
   13.9383   64.3344   37.1344 H   0  0  0  0  0  0
   17.3934   64.7073   38.1223 H   0  0  0  0  0  0
   16.4333   64.3344   36.6507 H   0  0  0  0  0  0
   16.1350   63.4265   38.1717 H   0  0  0  0  0  0
   12.4960   66.4550   36.9003 H   0  0  0  0  0  0
   13.7919   67.2562   34.9751 H   0  0  0  0  0  0
   13.7481   65.4621   35.0532 H   0  0  0  0  0  0
   15.2267   66.3473   35.5600 H   0  0  0  0  0  0
   14.9067   68.1434   37.8427 H   0  0  0  0  0  0
   11.8043   68.0380   37.8390 H   0  0  0  0  0  0
   14.2010   71.0730   39.7128 H   0  0  0  0  0  0
   15.0405   70.1588   38.4142 H   0  0  0  0  0  0
   14.6756   69.3615   39.9819 H   0  0  0  0  0  0
   10.9576   69.9520   38.8081 H   0  0  0  0  0  0
  1  2  1  0  0  0
  1 68  1  0  0  0
  2  3  1  0  0  0
  2 16  1  0  0  0
  2 69  1  0  0  0
  3  4  1  0  0  0
  3 70  1  0  0  0
  3 71  1  0  0  0
  4  5  1  0  0  0
  4  6  1  0  0  0
  4 72  1  0  0  0
  5 73  1  0  0  0
  5 74  1  0  0  0
  5 75  1  0  0  0
  6  7  1  0  0  0
  6 76  1  0  0  0
  6 77  1  0  0  0
  7  8  1  0  0  0
  7 12  1  0  0  0
  7 78  1  0  0  0
  8  9  1  0  0  0
  9 10  1  0  0  0
  9 11  2  0  0  0
 10 79  1  0  0  0
 10 80  1  0  0  0
 12 13  1  0  0  0
 12 81  1  0  0  0
 12 82  1  0  0  0
 13 14  2  0  0  0
 13 15  1  0  0  0
 15 44  1  0  0  0
 16 17  1  0  0  0
 16 18  1  0  0  0
 16 83  1  0  0  0
 17 84  1  0  0  0
 17 85  1  0  0  0
 17 86  1  0  0  0
 18 19  1  0  0  0
 18 21  1  0  0  0
 18 87  1  0  0  0
 19 20  1  0  0  0
 20 88  1  0  0  0
 20 89  1  0  0  0
 20 90  1  0  0  0
 21 22  2  0  0  0
 21 24  1  0  0  0
 22 23  1  0  0  0
 22 91  1  0  0  0
 23 25  1  0  0  0
 24 25  2  0  0  0
 25 26  1  0  0  0
 26 27  2  0  0  0
 26 29  1  0  0  0
 27 28  1  0  0  0
 27 92  1  0  0  0
 28 30  1  0  0  0
 29 30  2  0  0  0
 30 31  1  0  0  0
 31 32  1  0  0  0
 31 33  2  0  0  0
 32 35  2  0  0  0
 33 34  1  0  0  0
 33 93  1  0  0  0
 34 35  1  0  0  0
 35 36  1  0  0  0
 36 37  2  0  0  0
 36 94  1  0  0  0
 37 38  1  0  0  0
 37 95  1  0  0  0
 38 39  1  0  0  0
 38 96  1  0  0  0
 38 97  1  0  0  0
 39 40  1  0  0  0
 39 42  1  0  0  0
 39 98  1  0  0  0
 40 41  1  0  0  0
 41 99  1  0  0  0
 41100  1  0  0  0
 41101  1  0  0  0
 42 43  1  0  0  0
 42 44  1  0  0  0
 42102  1  0  0  0
 43103  1  0  0  0
 43104  1  0  0  0
 43105  1  0  0  0
 44 45  1  0  0  0
 44106  1  0  0  0
 45 46  1  0  0  0
 45107  1  0  0  0
 45108  1  0  0  0
 46 47  1  0  0  0
 46 49  1  0  0  0
 46109  1  0  0  0
 47 48  1  0  0  0
 48110  1  0  0  0
 48111  1  0  0  0
 48112  1  0  0  0
 49 50  1  0  0  0
 49 51  1  0  0  0
 49113  1  0  0  0
 50114  1  0  0  0
 50115  1  0  0  0
 50116  1  0  0  0
 51 52  1  0  0  0
 51117  1  0  0  0
 51118  1  0  0  0
 52 53  1  0  0  0
 52119  1  0  0  0
 52120  1  0  0  0
 53 54  2  0  0  0
 53 55  1  0  0  0
 55 56  1  0  0  0
 55 57  1  0  0  0
 55121  1  0  0  0
 56122  1  0  0  0
 56123  1  0  0  0
 56124  1  0  0  0
 57 58  1  0  0  0
 57 60  1  0  0  0
 57125  1  0  0  0
 58 59  1  0  0  0
 59126  1  0  0  0
 59127  1  0  0  0
 59128  1  0  0  0
 60 61  1  0  0  0
 60 62  1  0  0  0
 60129  1  0  0  0
 61130  1  0  0  0
 61131  1  0  0  0
 61132  1  0  0  0
 62 63  2  0  0  0
 62133  1  0  0  0
 63 64  1  0  0  0
 63134  1  0  0  0
 64 65  1  0  0  0
 64 66  1  0  0  0
 65135  1  0  0  0
 65136  1  0  0  0
 65137  1  0  0  0
 66 67  2  0  0  0
 66138  1  0  0  0
M  END
