1OSF
                    3D
 Structure written by MMmdl.
 93 94  0  0  1  0            999 V2000
   18.5893   61.9940   40.3596 C   0  0  0  0  0  0
   19.2493   62.1360   41.8256 O   0  0  0  0  0  0
   18.3613   62.5670   42.8716 C   0  0  1  0  0  0
   19.2553   62.5780   44.1766 C   0  0  0  0  0  0
   20.0053   61.3080   44.7086 C   0  0  2  0  0  0
   19.1093   60.0830   44.3996 C   0  0  0  0  0  0
   20.4663   61.3910   46.3116 C   0  0  0  0  0  0
   19.3063   61.6870   47.3196 C   0  0  0  0  0  0
   18.8483   62.9180   47.8406 C   0  0  0  0  0  0
   19.4583   64.1900   47.5106 N   0  0  0  0  0  0
   20.8633   64.5160   47.7166 C   0  0  0  0  0  0
   21.3853   64.9400   49.1456 C   0  0  0  0  0  0
   20.7053   65.8440   50.1966 N   0  3  0  0  0  0
   21.5573   66.0250   51.3406 C   0  0  0  0  0  0
   19.5363   65.3010   50.8216 C   0  0  0  0  0  0
   17.6803   63.0420   48.7936 C   0  0  0  0  0  0
   17.3453   64.1670   49.1766 O   0  0  0  0  0  0
   16.9743   61.7970   49.2406 C   0  0  0  0  0  0
   17.3873   60.5550   48.7916 C   0  0  0  0  0  0
   16.8423   59.2810   49.1366 N   0  0  0  0  0  0
   16.3263   58.0970   48.4756 C   0  0  0  0  0  0
   15.9883   57.2550   49.1576 O   0  0  0  0  0  0
   16.2903   58.0590   46.9316 C   0  0  0  0  0  0
   16.9603   56.8660   46.2926 C   0  0  0  0  0  0
   15.6833   59.0970   46.2616 C   0  0  0  0  0  0
   15.5353   59.3120   44.8166 C   0  0  0  0  0  0
   14.6153   60.0740   44.2386 C   0  0  0  0  0  0
   13.5363   60.8650   44.9246 C   0  0  2  0  0  0
   12.1413   60.3540   44.6076 O   0  0  0  0  0  0
   11.9043   59.0050   44.4266 C   0  0  0  0  0  0
   13.5033   62.3830   44.4996 C   0  0  1  0  0  0
   12.4813   63.0460   45.1976 O   0  0  0  0  0  0
   11.7523   64.0110   44.4746 C   0  0  0  0  0  0
   10.6213   64.2860   45.1576 N   0  0  0  0  0  0
   12.0713   64.5280   43.4136 O   0  0  0  0  0  0
   14.8743   63.2460   44.7216 C   0  0  0  0  0  0
   15.3183   63.4550   46.1656 C   0  0  0  0  0  0
   15.4843   63.7120   43.6686 C   0  0  0  0  0  0
   16.7393   64.5500   43.5276 C   0  0  2  0  0  0
   16.1993   65.9360   43.1126 C   0  0  0  0  0  0
   17.7423   63.9770   42.5176 C   0  0  1  0  0  0
   18.8753   64.9130   42.5106 O   0  0  0  0  0  0
   18.5863   60.4540   47.7986 C   0  0  0  0  0  0
   18.9533   59.3360   47.3926 O   0  0  0  0  0  0
   19.3476   61.6637   39.6496 H   0  0  0  0  0  0
   17.7813   61.2632   40.3936 H   0  0  0  0  0  0
   18.1927   62.9590   40.0441 H   0  0  0  0  0  0
   17.5080   61.8910   42.9260 H   0  0  0  0  0  0
   20.0679   63.2942   44.0549 H   0  0  0  0  0  0
   18.6450   62.8638   45.0333 H   0  0  0  0  0  0
   21.0110   61.2770   44.2893 H   0  0  0  0  0  0
   19.5978   59.1759   44.7556 H   0  0  0  0  0  0
   18.1488   60.1988   44.9017 H   0  0  0  0  0  0
   18.9500   60.0109   43.3237 H   0  0  0  0  0  0
   20.9064   60.4405   46.6133 H   0  0  0  0  0  0
   21.2001   62.1870   46.4384 H   0  0  0  0  0  0
   18.8998   64.9282   47.1067 H   0  0  0  0  0  0
   21.4782   63.6526   47.4624 H   0  0  0  0  0  0
   21.1387   65.3573   47.0807 H   0  0  0  0  0  0
   21.5365   64.0501   49.7566 H   0  0  0  0  0  0
   22.3296   65.4750   49.0441 H   0  0  0  0  0  0
   20.6054   66.7775   49.8243 H   0  0  0  0  0  0
   21.0584   66.6651   52.0682 H   0  0  0  0  0  0
   21.7685   65.0565   51.7939 H   0  0  0  0  0  0
   22.4919   66.4909   51.0281 H   0  0  0  0  0  0
   19.1415   66.0188   51.5406 H   0  0  0  0  0  0
   18.7811   65.0941   50.0633 H   0  0  0  0  0  0
   19.7956   64.3763   51.3371 H   0  0  0  0  0  0
   16.1363   61.8652   49.9184 H   0  0  0  0  0  0
   16.7401   59.0216   50.1073 H   0  0  0  0  0  0
   16.8769   56.9393   45.2083 H   0  0  0  0  0  0
   18.0129   56.8454   46.5749 H   0  0  0  0  0  0
   16.4755   55.9509   46.6327 H   0  0  0  0  0  0
   15.2291   59.9051   46.8157 H   0  0  0  0  0  0
   16.2111   58.8285   44.1267 H   0  0  0  0  0  0
   14.5933   60.1722   43.1633 H   0  0  0  0  0  0
   13.6578   60.7854   46.0049 H   0  0  0  0  0  0
   10.8479   58.8471   44.2096 H   0  0  0  0  0  0
   12.5045   58.6387   43.5937 H   0  0  0  0  0  0
   12.1734   58.4634   45.3335 H   0  0  0  0  0  0
   13.3538   62.4561   43.4224 H   0  0  0  0  0  0
    9.9635   64.9609   44.7944 H   0  0  0  0  0  0
   10.4327   63.8169   46.0319 H   0  0  0  0  0  0
   16.2376   64.0404   46.1825 H   0  0  0  0  0  0
   14.5396   63.9866   46.7124 H   0  0  0  0  0  0
   15.4956   62.4875   46.6354 H   0  0  0  0  0  0
   15.0908   63.5106   42.6832 H   0  0  0  0  0  0
   17.2890   64.5432   44.4688 H   0  0  0  0  0  0
   17.0323   66.6269   42.9823 H   0  0  0  0  0  0
   15.6516   65.8471   42.1744 H   0  0  0  0  0  0
   15.5325   66.3137   43.8877 H   0  0  0  0  0  0
   17.1594   63.8984   41.5999 H   0  0  0  0  0  0
   18.5609   65.7952   42.2999 H   0  0  0  0  0  0
  1  2  1  0  0  0
  1 45  1  0  0  0
  1 46  1  0  0  0
  1 47  1  0  0  0
  2  3  1  0  0  0
  3  4  1  0  0  0
  3 41  1  0  0  0
  3 48  1  0  0  0
  4  5  1  0  0  0
  4 49  1  0  0  0
  4 50  1  0  0  0
  5  6  1  0  0  0
  5  7  1  0  0  0
  5 51  1  0  0  0
  6 52  1  0  0  0
  6 53  1  0  0  0
  6 54  1  0  0  0
  7  8  1  0  0  0
  7 55  1  0  0  0
  7 56  1  0  0  0
  8  9  2  0  0  0
  8 43  1  0  0  0
  9 10  1  0  0  0
  9 16  1  0  0  0
 10 11  1  0  0  0
 10 57  1  0  0  0
 11 12  1  0  0  0
 11 58  1  0  0  0
 11 59  1  0  0  0
 12 13  1  0  0  0
 12 60  1  0  0  0
 12 61  1  0  0  0
 13 14  1  0  0  0
 13 15  1  0  0  0
 13 62  1  0  0  0
 14 63  1  0  0  0
 14 64  1  0  0  0
 14 65  1  0  0  0
 15 66  1  0  0  0
 15 67  1  0  0  0
 15 68  1  0  0  0
 16 17  2  0  0  0
 16 18  1  0  0  0
 18 19  2  0  0  0
 18 69  1  0  0  0
 19 20  1  0  0  0
 19 43  1  0  0  0
 20 21  1  0  0  0
 20 70  1  0  0  0
 21 22  2  0  0  0
 21 23  1  0  0  0
 23 24  1  0  0  0
 23 25  2  0  0  0
 24 71  1  0  0  0
 24 72  1  0  0  0
 24 73  1  0  0  0
 25 26  1  0  0  0
 25 74  1  0  0  0
 26 27  2  0  0  0
 26 75  1  0  0  0
 27 28  1  0  0  0
 27 76  1  0  0  0
 28 29  1  0  0  0
 28 31  1  0  0  0
 28 77  1  0  0  0
 29 30  1  0  0  0
 30 78  1  0  0  0
 30 79  1  0  0  0
 30 80  1  0  0  0
 31 32  1  0  0  0
 31 36  1  0  0  0
 31 81  1  0  0  0
 32 33  1  0  0  0
 33 34  1  0  0  0
 33 35  2  0  0  0
 34 82  1  0  0  0
 34 83  1  0  0  0
 36 37  1  0  0  0
 36 38  2  0  0  0
 37 84  1  0  0  0
 37 85  1  0  0  0
 37 86  1  0  0  0
 38 39  1  0  0  0
 38 87  1  0  0  0
 39 40  1  0  0  0
 39 41  1  0  0  0
 39 88  1  0  0  0
 40 89  1  0  0  0
 40 90  1  0  0  0
 40 91  1  0  0  0
 41 42  1  0  0  0
 41 92  1  0  0  0
 42 93  1  0  0  0
 43 44  2  0  0  0
M  CHG  1  13   1
M  END
