1FKI
                    3D
 Structure written by MMmdl.
 70 71  0  0  1  0            999 V2000
    8.2000  -38.3720    0.8770 N   0  0  0  0  0  0
    8.7830  -39.3840    1.5490 C   0  0  0  0  0  0
    9.4950  -39.1460    2.5420 O   0  0  0  0  0  0
    8.5570  -40.8410    1.1260 C   0  0  0  0  0  0
    9.0030  -41.2190    0.0390 O   0  0  0  0  0  0
    7.7510  -41.8170    2.0150 C   0  0  0  0  0  0
    7.0980  -42.9360    1.2220 C   0  0  0  0  0  0
    6.3130  -42.2040    0.2750 O   0  0  0  0  0  0
    5.4490  -42.8090   -0.5010 C   0  0  0  0  0  0
    5.3030  -44.0240   -0.4610 O   0  0  0  0  0  0
    4.7200  -41.9230   -1.4770 C   0  0  0  0  0  0
    3.4010  -42.4600   -1.9570 C   0  0  0  0  0  0
    2.8310  -41.5560   -3.0580 C   0  0  0  0  0  0
    2.1900  -40.2620   -2.5340 C   0  0  0  0  0  0
    1.3740  -40.4380   -1.2610 C   0  0  0  0  0  0
    1.1280  -39.0910   -0.6270 C   0  0  0  0  0  0
    2.3130  -38.6720    0.2170 C   0  0  0  0  0  0
    2.0550  -37.2730    0.7520 C   0  0  0  0  0  0
    3.2960  -36.7250    1.4300 C   0  0  0  0  0  0
    3.6950  -37.5120    2.6810 C   0  0  0  0  0  0
    4.9390  -36.9370    3.3450 C   0  0  0  0  0  0
    6.0730  -37.3520    2.5180 O   0  0  0  0  0  0
    7.0910  -36.5260    2.2580 C   0  0  0  0  0  0
    7.1310  -35.3720    2.6740 O   0  0  0  0  0  0
    8.2580  -37.0160    1.4190 C   0  0  2  0  0  0
    8.4830  -36.0780    0.2490 C   0  0  0  0  0  0
    7.4650  -36.2330   -0.8490 C   0  0  0  0  0  0
    7.3910  -37.6910   -1.2560 C   0  0  0  0  0  0
    7.0810  -38.5700   -0.0560 C   0  0  0  0  0  0
    6.5810  -41.1270    2.7740 C   0  0  0  0  0  0
    8.6630  -42.4620    3.0960 C   0  0  0  0  0  0
    7.8765  -43.5550    0.7521 H   0  0  0  0  0  0
    6.4922  -43.5585    1.8969 H   0  0  0  0  0  0
    4.5124  -40.9511   -1.0055 H   0  0  0  0  0  0
    5.3431  -41.7713   -2.3707 H   0  0  0  0  0  0
    3.5427  -43.4736   -2.3603 H   0  0  0  0  0  0
    2.6919  -42.4955   -1.1168 H   0  0  0  0  0  0
    3.6376  -41.2632   -3.7462 H   0  0  0  0  0  0
    2.0542  -42.1010   -3.6143 H   0  0  0  0  0  0
    2.9773  -39.5265   -2.3124 H   0  0  0  0  0  0
    1.5113  -39.8538   -3.2973 H   0  0  0  0  0  0
    0.4102  -40.9084   -1.5054 H   0  0  0  0  0  0
    1.9262  -41.0779   -0.5570 H   0  0  0  0  0  0
    0.9685  -38.3390   -1.4139 H   0  0  0  0  0  0
    0.2361  -39.1451    0.0146 H   0  0  0  0  0  0
    2.4352  -39.3765    1.0529 H   0  0  0  0  0  0
    3.2229  -38.6752   -0.4011 H   0  0  0  0  0  0
    1.7793  -36.6076   -0.0794 H   0  0  0  0  0  0
    1.2339  -37.3057    1.4832 H   0  0  0  0  0  0
    4.1432  -36.7619    0.7293 H   0  0  0  0  0  0
    3.1175  -35.6833    1.7350 H   0  0  0  0  0  0
    2.8721  -37.4829    3.4104 H   0  0  0  0  0  0
    3.9044  -38.5563    2.4060 H   0  0  0  0  0  0
    4.8594  -35.8406    3.3855 H   0  0  0  0  0  0
    5.0273  -37.3362    4.3662 H   0  0  0  0  0  0
    9.0854  -37.0756    2.1414 H   0  0  0  0  0  0
    8.4335  -35.0365    0.5993 H   0  0  0  0  0  0
    9.4730  -36.2705   -0.1902 H   0  0  0  0  0  0
    6.4812  -35.9000   -0.4866 H   0  0  0  0  0  0
    7.7629  -35.6224   -1.7141 H   0  0  0  0  0  0
    6.5977  -37.8223   -2.0066 H   0  0  0  0  0  0
    8.3556  -38.0017   -1.6838 H   0  0  0  0  0  0
    7.0237  -39.6312   -0.3399 H   0  0  0  0  0  0
    6.1410  -38.2692    0.4297 H   0  0  0  0  0  0
    6.0504  -41.8720    3.3851 H   0  0  0  0  0  0
    5.8833  -40.6844    2.0478 H   0  0  0  0  0  0
    6.9822  -40.3368    3.4257 H   0  0  0  0  0  0
    8.0682  -43.1505    3.7142 H   0  0  0  0  0  0
    9.0905  -41.6736    3.7329 H   0  0  0  0  0  0
    9.4756  -43.0183    2.6058 H   0  0  0  0  0  0
  1  2  1  0  0  0
  1 25  1  0  0  0
  1 29  1  0  0  0
  2  3  2  0  0  0
  2  4  1  0  0  0
  4  5  2  0  0  0
  4  6  1  0  0  0
  6  7  1  0  0  0
  6 30  1  0  0  0
  6 31  1  0  0  0
  7  8  1  0  0  0
  7 32  1  0  0  0
  7 33  1  0  0  0
  8  9  1  0  0  0
  9 10  2  0  0  0
  9 11  1  0  0  0
 11 12  1  0  0  0
 11 34  1  0  0  0
 11 35  1  0  0  0
 12 13  1  0  0  0
 12 36  1  0  0  0
 12 37  1  0  0  0
 13 14  1  0  0  0
 13 38  1  0  0  0
 13 39  1  0  0  0
 14 15  1  0  0  0
 14 40  1  0  0  0
 14 41  1  0  0  0
 15 16  1  0  0  0
 15 42  1  0  0  0
 15 43  1  0  0  0
 16 17  1  0  0  0
 16 44  1  0  0  0
 16 45  1  0  0  0
 17 18  1  0  0  0
 17 46  1  0  0  0
 17 47  1  0  0  0
 18 19  1  0  0  0
 18 48  1  0  0  0
 18 49  1  0  0  0
 19 20  1  0  0  0
 19 50  1  0  0  0
 19 51  1  0  0  0
 20 21  1  0  0  0
 20 52  1  0  0  0
 20 53  1  0  0  0
 21 22  1  0  0  0
 21 54  1  0  0  0
 21 55  1  0  0  0
 22 23  1  0  0  0
 23 24  2  0  0  0
 23 25  1  0  0  0
 25 26  1  0  0  0
 25 56  1  0  0  0
 26 27  1  0  0  0
 26 57  1  0  0  0
 26 58  1  0  0  0
 27 28  1  0  0  0
 27 59  1  0  0  0
 27 60  1  0  0  0
 28 29  1  0  0  0
 28 61  1  0  0  0
 28 62  1  0  0  0
 29 63  1  0  0  0
 29 64  1  0  0  0
 30 65  1  0  0  0
 30 66  1  0  0  0
 30 67  1  0  0  0
 31 68  1  0  0  0
 31 69  1  0  0  0
 31 70  1  0  0  0
M  END
