2F3E
                    3D
 Structure written by MMmdl.
100100  0  0  1  0            999 V2000
   31.5950    8.5370   15.4440 S   0  0  0  0  0  0
   32.3940    6.8820   15.5310 C   0  0  0  0  0  0
   31.3630    5.8880   14.8940 C   0  0  2  0  0  0
   30.3040    5.6570   15.8710 N   0  0  0  0  0  0
   29.0060    5.7060   15.4860 C   0  0  0  0  0  0
   27.9870    5.4130   16.5780 C   0  0  1  0  0  0
   28.0540    6.4990   17.5540 N   0  0  0  0  0  0
   27.6110    6.3170   18.8190 C   0  0  0  0  0  0
   27.7570    7.5040   19.7220 C   0  0  2  0  0  0
   29.2420    7.5520   20.0720 C   0  0  0  0  0  0
   29.5800    9.0960   20.8870 S   0  0  0  0  0  0
   31.3730    9.0660   20.5590 C   0  0  0  0  0  0
   31.6750    9.5930   19.1690 C   0  0  0  0  0  0
   32.0440    8.8050   18.1490 C   0  0  0  0  0  0
   32.3960    9.4170   16.8200 C   0  0  0  0  0  0
   26.8870    7.3750   20.8910 N   0  0  0  0  0  0
   25.5410    7.4390   20.6940 C   0  0  0  0  0  0
   25.0230    7.6400   19.5950 O   0  0  0  0  0  0
   24.8270    7.2460   21.8540 O   0  0  0  0  0  0
   23.3540    7.2510   21.6710 C   0  0  0  0  0  0
   22.6820    7.0010   23.0440 C   0  0  0  0  0  0
   22.8420    8.6170   21.1280 C   0  0  0  0  0  0
   22.9120    6.1060   20.7160 C   0  0  0  0  0  0
   27.1240    5.2840   19.2480 O   0  0  0  0  0  0
   26.5360    5.2110   16.0490 C   0  0  0  0  0  0
   28.6530    5.9570   14.3430 O   0  0  0  0  0  0
   32.0430    4.5570   14.4090 C   0  0  1  0  0  0
   32.6830    3.9000   15.4840 O   0  0  0  0  0  0
   31.0440    3.5260   13.8540 C   0  0  0  0  0  0
   31.8410    2.6610   12.8760 C   0  0  1  0  0  0
   31.2100    1.2720   12.6790 C   0  0  0  0  0  0
   31.7910    3.3110   11.5070 C   0  0  0  0  0  0
   30.8060    3.9620   11.1850 O   0  0  0  0  0  0
   32.8570    3.1370   10.7170 N   0  0  0  0  0  0
   32.8350    3.7200    9.3760 C   0  0  1  0  0  0
   34.2290    3.7060    8.7150 C   0  0  0  0  0  0
   34.6480    2.2580    8.4600 C   0  0  0  0  0  0
   34.2030    4.4480    7.3620 C   0  0  0  0  0  0
   31.8230    2.9820    8.5390 C   0  0  0  0  0  0
   31.6320    1.7890    8.7560 O   0  0  0  0  0  0
   31.1670    3.6850    7.5900 N   0  0  0  0  0  0
   30.1730    2.9780    6.7790 C   0  0  0  0  0  0
   29.1020    3.9650    6.2750 C   0  0  0  0  0  0
   28.0550    4.1920    7.3720 C   0  0  0  0  0  0
   26.9960    5.1660    6.8320 C   0  0  0  0  0  0
   33.3376    6.9002   14.9659 H   0  0  0  0  0  0
   32.6006    6.6293   16.5815 H   0  0  0  0  0  0
   30.8587    6.3274   14.0207 H   0  0  0  0  0  0
   30.5599    5.4433   16.9193 H   0  0  0  0  0  0
   28.2757    4.4822   17.0881 H   0  0  0  0  0  0
   28.4677    7.4757   17.2625 H   0  0  0  0  0  0
   27.4098    8.4428   19.2659 H   0  0  0  0  0  0
   29.4886    6.7132   20.7396 H   0  0  0  0  0  0
   29.8385    7.4752   19.1510 H   0  0  0  0  0  0
   31.8914    9.6955   21.2973 H   0  0  0  0  0  0
   31.7423    8.0326   20.6345 H   0  0  0  0  0  0
   31.5787   10.6784   19.0186 H   0  0  0  0  0  0
   32.0888    7.7143   18.2849 H   0  0  0  0  0  0
   33.4882    9.3740   16.6965 H   0  0  0  0  0  0
   32.0685   10.4671   16.8238 H   0  0  0  0  0  0
   27.3253    7.2313   21.8896 H   0  0  0  0  0  0
   21.5887    7.0022   22.9227 H   0  0  0  0  0  0
   22.9740    7.7965   23.7454 H   0  0  0  0  0  0
   23.0061    6.0268   23.4389 H   0  0  0  0  0  0
   21.7493    8.5773   21.0075 H   0  0  0  0  0  0
   23.3110    8.8237   20.1547 H   0  0  0  0  0  0
   23.1039    9.4152   21.8381 H   0  0  0  0  0  0
   21.8188    6.1300   20.5961 H   0  0  0  0  0  0
   23.2131    5.1372   21.1412 H   0  0  0  0  0  0
   23.3915    6.2409   19.7352 H   0  0  0  0  0  0
   25.8630    5.0047   16.8943 H   0  0  0  0  0  0
   26.5158    4.3630   15.3487 H   0  0  0  0  0  0
   26.2046    6.1227   15.5304 H   0  0  0  0  0  0
   32.8106    4.8207   13.6665 H   0  0  0  0  0  0
   33.2092    2.9493   15.3127 H   0  0  0  0  0  0
   30.6399    2.9247   14.6817 H   0  0  0  0  0  0
   30.2211    4.0497   13.3454 H   0  0  0  0  0  0
   32.8599    2.5741   13.2814 H   0  0  0  0  0  0
   31.8176    0.6905   11.9700 H   0  0  0  0  0  0
   30.1907    1.3854   12.2814 H   0  0  0  0  0  0
   31.1706    0.7469   13.6448 H   0  0  0  0  0  0
   33.7368    2.5704   11.0560 H   0  0  0  0  0  0
   32.5184    4.7662    9.4990 H   0  0  0  0  0  0
   34.9431    4.1997    9.3906 H   0  0  0  0  0  0
   35.6417    2.2415    7.9886 H   0  0  0  0  0  0
   33.9176    1.7770    7.7928 H   0  0  0  0  0  0
   34.6862    1.7137    9.4152 H   0  0  0  0  0  0
   35.2062    4.4242    6.9115 H   0  0  0  0  0  0
   33.8977    5.4925    7.5225 H   0  0  0  0  0  0
   33.4865    3.9560    6.6878 H   0  0  0  0  0  0
   31.3587    4.7542    7.4164 H   0  0  0  0  0  0
   30.6692    2.5116    5.9152 H   0  0  0  0  0  0
   29.6891    2.2001    7.3879 H   0  0  0  0  0  0
   29.5777    4.9234    6.0198 H   0  0  0  0  0  0
   28.6118    3.5497    5.3821 H   0  0  0  0  0  0
   27.5862    3.2324    7.6356 H   0  0  0  0  0  0
   28.5421    4.6186    8.2612 H   0  0  0  0  0  0
   26.2332    5.3434    7.6045 H   0  0  0  0  0  0
   26.5204    4.7327    5.9397 H   0  0  0  0  0  0
   27.4764    6.1189    6.5653 H   0  0  0  0  0  0
  1  2  1  0  0  0
  1 15  1  0  0  0
  2  3  1  0  0  0
  2 46  1  0  0  0
  2 47  1  0  0  0
  3  4  1  0  0  0
  3 27  1  0  0  0
  3 48  1  0  0  0
  4  5  1  0  0  0
  4 49  1  0  0  0
  5  6  1  0  0  0
  5 26  2  0  0  0
  6  7  1  0  0  0
  6 25  1  0  0  0
  6 50  1  0  0  0
  7  8  1  0  0  0
  7 51  1  0  0  0
  8  9  1  0  0  0
  8 24  2  0  0  0
  9 10  1  0  0  0
  9 16  1  0  0  0
  9 52  1  0  0  0
 10 11  1  0  0  0
 10 53  1  0  0  0
 10 54  1  0  0  0
 11 12  1  0  0  0
 12 13  1  0  0  0
 12 55  1  0  0  0
 12 56  1  0  0  0
 13 14  2  0  0  0
 13 57  1  0  0  0
 14 15  1  0  0  0
 14 58  1  0  0  0
 15 59  1  0  0  0
 15 60  1  0  0  0
 16 17  1  0  0  0
 16 61  1  0  0  0
 17 18  2  0  0  0
 17 19  1  0  0  0
 19 20  1  0  0  0
 20 21  1  0  0  0
 20 22  1  0  0  0
 20 23  1  0  0  0
 21 62  1  0  0  0
 21 63  1  0  0  0
 21 64  1  0  0  0
 22 65  1  0  0  0
 22 66  1  0  0  0
 22 67  1  0  0  0
 23 68  1  0  0  0
 23 69  1  0  0  0
 23 70  1  0  0  0
 25 71  1  0  0  0
 25 72  1  0  0  0
 25 73  1  0  0  0
 27 28  1  0  0  0
 27 29  1  0  0  0
 27 74  1  0  0  0
 28 75  1  0  0  0
 29 30  1  0  0  0
 29 76  1  0  0  0
 29 77  1  0  0  0
 30 31  1  0  0  0
 30 32  1  0  0  0
 30 78  1  0  0  0
 31 79  1  0  0  0
 31 80  1  0  0  0
 31 81  1  0  0  0
 32 33  2  0  0  0
 32 34  1  0  0  0
 34 35  1  0  0  0
 34 82  1  0  0  0
 35 36  1  0  0  0
 35 39  1  0  0  0
 35 83  1  0  0  0
 36 37  1  0  0  0
 36 38  1  0  0  0
 36 84  1  0  0  0
 37 85  1  0  0  0
 37 86  1  0  0  0
 37 87  1  0  0  0
 38 88  1  0  0  0
 38 89  1  0  0  0
 38 90  1  0  0  0
 39 40  2  0  0  0
 39 41  1  0  0  0
 41 42  1  0  0  0
 41 91  1  0  0  0
 42 43  1  0  0  0
 42 92  1  0  0  0
 42 93  1  0  0  0
 43 44  1  0  0  0
 43 94  1  0  0  0
 43 95  1  0  0  0
 44 45  1  0  0  0
 44 96  1  0  0  0
 44 97  1  0  0  0
 45 98  1  0  0  0
 45 99  1  0  0  0
 45100  1  0  0  0
M  END
