2F3F
                    3D
 Structure written by MMmdl.
 76 77  0  0  1  0            999 V2000
   29.8450    9.0120   18.6550 C   0  0  1  0  0  0
   29.3620    7.7690   19.4580 C   0  0  1  0  0  0
   28.4360   10.0720   18.0740 S   0  0  0  0  0  0
   28.7000    8.1460   20.7160 N   0  0  0  0  0  0
   29.6930    8.8200   21.5910 C   0  0  0  0  0  0
   30.1850   10.1310   20.9180 C   0  0  0  0  0  0
   30.8370    9.8110   19.5370 C   0  0  0  0  0  0
   28.6160    6.7610   18.6510 C   0  0  0  0  0  0
   29.0010    6.7150   17.3600 N   0  0  0  0  0  0
   28.4610    5.7200   16.4560 C   0  0  2  0  0  0
   29.4150    5.7380   15.3050 C   0  0  0  0  0  0
   30.7250    5.5380   15.6250 N   0  0  0  0  0  0
   31.7330    5.5930   14.5890 C   0  0  1  0  0  0
   32.9930    6.3810   15.0680 C   0  0  0  0  0  0
   32.4950    7.8800   15.9940 S   0  0  0  0  0  0
   31.8310    8.9710   14.6630 C   0  0  0  0  0  0
   31.2130   10.0830   15.4810 C   0  0  0  0  0  0
   29.9120   10.0580   15.7800 C   0  0  0  0  0  0
   29.2940   11.0740   16.7000 C   0  0  0  0  0  0
   32.1960    4.2100   14.0730 C   0  0  1  0  0  0
   32.9280    3.5000   15.0810 O   0  0  0  0  0  0
   31.0430    3.3210   13.5870 C   0  0  0  0  0  0
   31.6770    2.3250   12.5970 C   0  0  1  0  0  0
   30.7900    1.0840   12.4130 C   0  0  0  0  0  0
   31.8080    2.9790   11.2440 C   0  0  0  0  0  0
   30.8950    3.6790   10.8270 O   0  0  0  0  0  0
   32.9440    2.7540   10.5720 N   0  0  0  0  0  0
   33.1350    3.3500    9.2610 C   0  0  0  0  0  0
   34.3780    2.7180    8.6150 C   0  0  0  0  0  0
   34.4340    2.9740    7.0740 C   0  0  0  0  0  0
   34.7510    4.4300    6.7610 C   0  0  0  0  0  0
   29.0190    5.9260   14.1770 O   0  0  0  0  0  0
   26.9820    5.9990   16.1140 C   0  0  0  0  0  0
   27.7480    6.0530   19.1530 O   0  0  0  0  0  0
   30.4829    8.5754   17.8725 H   0  0  0  0  0  0
   30.2364    7.1905   19.7907 H   0  0  0  0  0  0
   27.8657    8.8298   20.5007 H   0  0  0  0  0  0
   29.2263    9.0608   22.5575 H   0  0  0  0  0  0
   30.5511    8.1514   21.7546 H   0  0  0  0  0  0
   29.3314   10.8081   20.7666 H   0  0  0  0  0  0
   30.9293   10.6183   21.5649 H   0  0  0  0  0  0
   31.7479    9.2152   19.6963 H   0  0  0  0  0  0
   31.0986   10.7533   19.0333 H   0  0  0  0  0  0
   29.7364    7.4475   16.9959 H   0  0  0  0  0  0
   28.4494    4.7192   16.9123 H   0  0  0  0  0  0
   31.0168    5.3355   16.6661 H   0  0  0  0  0  0
   31.1671    6.1074   13.7983 H   0  0  0  0  0  0
   33.5990    5.7394   15.7245 H   0  0  0  0  0  0
   33.5912    6.6815   14.1952 H   0  0  0  0  0  0
   32.6566    9.3073   14.0186 H   0  0  0  0  0  0
   31.1003    8.4114   14.0606 H   0  0  0  0  0  0
   31.8416   10.9155   15.8300 H   0  0  0  0  0  0
   29.2637    9.2804   15.3499 H   0  0  0  0  0  0
   28.5483   11.6883   16.1740 H   0  0  0  0  0  0
   30.0587   11.7272   17.1456 H   0  0  0  0  0  0
   32.9004    4.3821   13.2459 H   0  0  0  0  0  0
   33.3263    2.4971   14.8677 H   0  0  0  0  0  0
   30.5935    2.8013   14.4460 H   0  0  0  0  0  0
   30.2812    3.9444   13.0960 H   0  0  0  0  0  0
   32.6643    2.0345   12.9855 H   0  0  0  0  0  0
   31.2682    0.3936   11.7026 H   0  0  0  0  0  0
   29.8081    1.3898   12.0227 H   0  0  0  0  0  0
   30.6588    0.5802   13.3820 H   0  0  0  0  0  0
   33.7308    2.1211   11.0083 H   0  0  0  0  0  0
   32.2490    3.1575    8.6381 H   0  0  0  0  0  0
   33.2785    4.4352    9.3689 H   0  0  0  0  0  0
   35.2844    3.1473    9.0668 H   0  0  0  0  0  0
   34.3651    1.6307    8.7814 H   0  0  0  0  0  0
   35.2160    2.3435    6.6258 H   0  0  0  0  0  0
   33.4608    2.7256    6.6254 H   0  0  0  0  0  0
   34.7822    4.5723    5.6707 H   0  0  0  0  0  0
   35.7275    4.6937    7.1933 H   0  0  0  0  0  0
   33.9723    5.0758    7.1929 H   0  0  0  0  0  0
   26.6117    5.2232   15.4277 H   0  0  0  0  0  0
   26.8964    6.9848   15.6335 H   0  0  0  0  0  0
   26.3838    5.9878   17.0371 H   0  0  0  0  0  0
  1  2  1  0  0  0
  1  3  1  0  0  0
  1  7  1  0  0  0
  1 35  1  0  0  0
  2  4  1  0  0  0
  2  8  1  0  0  0
  2 36  1  0  0  0
  3 19  1  0  0  0
  4  5  1  0  0  0
  4 37  1  0  0  0
  5  6  1  0  0  0
  5 38  1  0  0  0
  5 39  1  0  0  0
  6  7  1  0  0  0
  6 40  1  0  0  0
  6 41  1  0  0  0
  7 42  1  0  0  0
  7 43  1  0  0  0
  8  9  1  0  0  0
  8 34  2  0  0  0
  9 10  1  0  0  0
  9 44  1  0  0  0
 10 11  1  0  0  0
 10 33  1  0  0  0
 10 45  1  0  0  0
 11 12  1  0  0  0
 11 32  2  0  0  0
 12 13  1  0  0  0
 12 46  1  0  0  0
 13 14  1  0  0  0
 13 20  1  0  0  0
 13 47  1  0  0  0
 14 15  1  0  0  0
 14 48  1  0  0  0
 14 49  1  0  0  0
 15 16  1  0  0  0
 16 17  1  0  0  0
 16 50  1  0  0  0
 16 51  1  0  0  0
 17 18  2  0  0  0
 17 52  1  0  0  0
 18 19  1  0  0  0
 18 53  1  0  0  0
 19 54  1  0  0  0
 19 55  1  0  0  0
 20 21  1  0  0  0
 20 22  1  0  0  0
 20 56  1  0  0  0
 21 57  1  0  0  0
 22 23  1  0  0  0
 22 58  1  0  0  0
 22 59  1  0  0  0
 23 24  1  0  0  0
 23 25  1  0  0  0
 23 60  1  0  0  0
 24 61  1  0  0  0
 24 62  1  0  0  0
 24 63  1  0  0  0
 25 26  2  0  0  0
 25 27  1  0  0  0
 27 28  1  0  0  0
 27 64  1  0  0  0
 28 29  1  0  0  0
 28 65  1  0  0  0
 28 66  1  0  0  0
 29 30  1  0  0  0
 29 67  1  0  0  0
 29 68  1  0  0  0
 30 31  1  0  0  0
 30 69  1  0  0  0
 30 70  1  0  0  0
 31 71  1  0  0  0
 31 72  1  0  0  0
 31 73  1  0  0  0
 33 74  1  0  0  0
 33 75  1  0  0  0
 33 76  1  0  0  0
M  END
