2ASM
                    3D
 Structure written by MMmdl.
155156  0  0  1  0            999 V2000
   14.4346   63.1214   46.0234 O   0  0  0  0  0  0
   15.5816   62.7674   46.1654 C   0  0  0  0  0  0
   16.6516   63.5064   45.7154 O   0  0  0  0  0  0
   16.0286   61.4644   46.7974 C   0  0  0  0  0  0
   15.0776   60.5884   47.1894 C   0  0  0  0  0  0
   15.5026   59.2534   47.7954 C   0  0  0  0  0  0
   14.6496   58.2734   48.1684 C   0  0  0  0  0  0
   13.0846   58.3894   48.0604 C   0  0  0  0  0  0
   15.3856   57.0544   48.7084 C   0  0  0  0  0  0
   15.1866   56.9184   50.2204 C   0  0  1  0  0  0
   13.7796   56.3774   50.3394 O   0  0  0  0  0  0
   13.2516   56.5034   51.7564 C   0  0  0  0  0  0
   16.2066   55.9104   50.7584 C   0  0  0  0  0  0
   17.6026   56.4324   50.7164 C   0  0  0  0  0  0
   18.5206   55.8474   49.9574 C   0  0  0  0  0  0
   19.9216   56.3474   49.8704 C   0  0  0  0  0  0
   20.7516   55.8424   49.1764 O   0  0  0  0  0  0
   17.9566   57.6484   51.5294 C   0  0  0  0  0  0
   19.4496   57.8074   51.7914 C   0  0  1  0  0  0
   20.2856   57.4484   50.6374 O   0  0  0  0  0  0
   19.9256   59.2004   52.1354 C   0  0  2  0  0  0
   21.3486   59.1594   52.7004 C   0  0  0  0  0  0
   19.1296   60.0014   53.1594 C   0  0  1  0  0  0
   18.8636   59.3494   54.3754 O   0  0  0  0  0  0
   17.9386   59.4064   55.4684 C   0  0  0  0  0  0
   19.3766   61.4704   53.4744 C   0  0  0  0  0  0
   19.0326   62.4464   52.2974 C   0  0  2  0  0  0
   19.7666   63.6174   52.7534 O   0  0  0  0  0  0
   19.7486   64.7874   51.8834 C   0  0  0  0  0  0
   17.4676   62.6434   52.4114 C   0  0  0  0  0  0
   16.8236   62.2424   51.3084 C   0  0  0  0  0  0
   15.3046   62.4064   51.2604 C   0  0  2  0  0  0
   14.6546   61.0594   51.0624 C   0  0  0  0  0  0
   14.8226   63.4414   50.2064 C   0  0  1  0  0  0
   13.3926   63.5674   50.3064 O   0  0  0  0  0  0
   12.6356   63.3244   49.1134 C   0  0  0  0  0  0
   15.4036   64.8104   50.5284 C   0  0  0  0  0  0
   15.2756   65.9224   49.5024 C   0  0  1  0  0  0
   15.4956   67.1874   50.1154 O   0  0  0  0  0  0
   15.0216   68.4624   49.6974 C   0  0  0  0  0  0
   16.1386   65.8224   48.2734 C   0  0  0  0  0  0
   15.8086   65.9334   46.9984 C   0  0  0  0  0  0
   16.7536   65.8784   45.7964 C   0  0  2  0  0  0
   16.4126   67.1864   45.0874 C   0  0  0  0  0  0
   16.2796   64.6684   44.9634 C   0  0  1  0  0  0
   17.1306   64.5934   43.6374 C   0  0  1  0  0  0
   18.6466   64.3404   43.8854 C   0  0  0  0  0  0
   16.6196   63.4194   42.7714 C   0  0  1  0  0  0
   15.2526   63.7634   42.4204 O   0  0  0  0  0  0
   14.3146   62.6974   42.5474 C   0  0  0  0  0  0
   17.3656   63.2814   41.4094 C   0  0  1  0  0  0
   16.7676   62.0814   40.6164 C   0  0  0  0  0  0
   17.4066   64.5024   40.4854 C   0  0  0  0  0  0
   18.2466   64.2744   39.2004 C   0  0  0  0  0  0
   18.4036   65.6344   38.4514 C   0  0  0  0  0  0
   17.9906   66.7164   38.7764 O   0  0  0  0  0  0
   19.1936   65.3204   37.1984 C   0  0  2  0  0  0
   20.4096   66.3394   37.1804 C   0  0  0  0  0  0
   18.2476   65.6504   35.9844 C   0  0  2  0  0  0
   17.2276   64.6824   36.1884 O   0  0  0  0  0  0
   16.0446   65.0444   35.4914 C   0  0  0  0  0  0
   18.9896   65.3464   34.6234 C   0  0  0  0  0  0
   19.5926   63.9214   34.4884 C   0  0  0  0  0  0
   20.9346   63.9104   34.4124 C   0  0  0  0  0  0
   21.5606   62.6154   34.2914 N   0  0  0  0  0  0
   20.8456   61.3354   34.1854 C   0  0  0  0  0  0
   22.9916   62.6004   34.3554 C   0  0  0  0  0  0
   23.6596   61.6064   34.3454 O   0  0  0  0  0  0
   17.0921   61.2223   46.9406 H   0  0  0  0  0  0
   14.0138   60.8415   47.0700 H   0  0  0  0  0  0
   16.5867   59.1165   47.9217 H   0  0  0  0  0  0
   12.6220   57.4611   48.4270 H   0  0  0  0  0  0
   12.8006   58.5507   47.0101 H   0  0  0  0  0  0
   12.7370   59.2374   48.6687 H   0  0  0  0  0  0
   15.0011   56.1474   48.2191 H   0  0  0  0  0  0
   16.4614   57.1543   48.5019 H   0  0  0  0  0  0
   15.3110   57.8535   50.7862 H   0  0  0  0  0  0
   12.2290   56.1008   51.8038 H   0  0  0  0  0  0
   13.2426   57.5630   52.0514 H   0  0  0  0  0  0
   13.9005   55.9376   52.4411 H   0  0  0  0  0  0
   15.9669   55.6690   51.8045 H   0  0  0  0  0  0
   16.1700   54.9929   50.1527 H   0  0  0  0  0  0
   18.2585   54.9598   49.3629 H   0  0  0  0  0  0
   17.6222   58.5531   51.0006 H   0  0  0  0  0  0
   17.4599   57.5917   52.5092 H   0  0  0  0  0  0
   19.5923   57.1177   52.6364 H   0  0  0  0  0  0
   19.8074   59.6960   51.1606 H   0  0  0  0  0  0
   21.6760   60.1809   52.9440 H   0  0  0  0  0  0
   22.0279   58.7253   51.9520 H   0  0  0  0  0  0
   21.3639   58.5425   53.6110 H   0  0  0  0  0  0
   18.2085   59.9824   52.5584 H   0  0  0  0  0  0
   18.1899   58.6266   56.2025 H   0  0  0  0  0  0
   16.9176   59.2418   55.0936 H   0  0  0  0  0  0
   17.9983   60.3945   55.9481 H   0  0  0  0  0  0
   18.7584   61.7701   54.3334 H   0  0  0  0  0  0
   20.4390   61.6197   53.7174 H   0  0  0  0  0  0
   19.3213   62.2140   51.2617 H   0  0  0  0  0  0
   20.3371   65.5951   52.3430 H   0  0  0  0  0  0
   18.7108   65.1240   51.7431 H   0  0  0  0  0  0
   20.1843   64.5256   50.9079 H   0  0  0  0  0  0
   16.9012   63.0534   53.2606 H   0  0  0  0  0  0
   17.3875   61.8090   50.4692 H   0  0  0  0  0  0
   14.9896   62.7939   52.2405 H   0  0  0  0  0  0
   13.5619   61.1810   51.0283 H   0  0  0  0  0  0
   14.9239   60.3960   51.8976 H   0  0  0  0  0  0
   15.0042   60.6190   50.1170 H   0  0  0  0  0  0
   15.0767   63.1229   49.1846 H   0  0  0  0  0  0
   11.5642   63.4531   49.3265 H   0  0  0  0  0  0
   12.8195   62.2972   48.7654 H   0  0  0  0  0  0
   12.9425   64.0364   48.3331 H   0  0  0  0  0  0
   14.9201   65.2106   51.4318 H   0  0  0  0  0  0
   16.4859   64.7178   50.7022 H   0  0  0  0  0  0
   14.2346   65.8768   49.1500 H   0  0  0  0  0  0
   15.3755   69.2329   50.3982 H   0  0  0  0  0  0
   13.9217   68.4578   49.6824 H   0  0  0  0  0  0
   15.4012   68.6820   48.6886 H   0  0  0  0  0  0
   17.1837   65.6274   48.5561 H   0  0  0  0  0  0
   14.7567   66.0825   46.7135 H   0  0  0  0  0  0
   17.8297   65.7848   46.0043 H   0  0  0  0  0  0
   17.0303   67.2848   44.1826 H   0  0  0  0  0  0
   16.6129   68.0320   45.7618 H   0  0  0  0  0  0
   15.3490   67.1849   44.8069 H   0  0  0  0  0  0
   15.1924   64.6857   44.7975 H   0  0  0  0  0  0
   17.0202   65.5629   43.1297 H   0  0  0  0  0  0
   19.1742   64.3004   42.9210 H   0  0  0  0  0  0
   18.7771   63.3849   44.4147 H   0  0  0  0  0  0
   19.0596   65.1570   44.4957 H   0  0  0  0  0  0
   16.6942   62.4840   43.3455 H   0  0  0  0  0  0
   13.3140   63.0534   42.2610 H   0  0  0  0  0  0
   14.2951   62.3485   43.5904 H   0  0  0  0  0  0
   14.6111   61.8677   41.8887 H   0  0  0  0  0  0
   18.4197   63.1528   41.6966 H   0  0  0  0  0  0
   17.2912   61.9803   39.6543 H   0  0  0  0  0  0
   15.6974   62.2590   40.4345 H   0  0  0  0  0  0
   16.8920   61.1575   41.2004 H   0  0  0  0  0  0
   16.3842   64.7585   40.1708 H   0  0  0  0  0  0
   17.8491   65.3541   41.0227 H   0  0  0  0  0  0
   19.2379   63.8843   39.4748 H   0  0  0  0  0  0
   17.7341   63.5493   38.5512 H   0  0  0  0  0  0
   19.5219   64.2706   37.1852 H   0  0  0  0  0  0
   21.0253   66.1598   36.2867 H   0  0  0  0  0  0
   21.0221   66.1953   38.0827 H   0  0  0  0  0  0
   20.0245   67.3695   37.1594 H   0  0  0  0  0  0
   17.8245   66.6651   35.9483 H   0  0  0  0  0  0
   15.2701   64.2824   35.6633 H   0  0  0  0  0  0
   16.2597   65.1123   34.4148 H   0  0  0  0  0  0
   15.6877   66.0188   35.8563 H   0  0  0  0  0  0
   18.2844   65.4630   33.7873 H   0  0  0  0  0  0
   19.8270   66.0485   34.4975 H   0  0  0  0  0  0
   19.0320   62.9757   34.4527 H   0  0  0  0  0  0
   21.4951   64.8564   34.4437 H   0  0  0  0  0  0
   21.5734   60.5144   34.1053 H   0  0  0  0  0  0
   20.2051   61.3461   33.2912 H   0  0  0  0  0  0
   20.2234   61.1878   35.0804 H   0  0  0  0  0  0
   23.4744   63.5869   34.4171 H   0  0  0  0  0  0
  1  2  2  0  0  0
  2  3  1  0  0  0
  2  4  1  0  0  0
  3 45  1  0  0  0
  4  5  2  0  0  0
  4 69  1  0  0  0
  5  6  1  0  0  0
  5 70  1  0  0  0
  6  7  2  0  0  0
  6 71  1  0  0  0
  7  8  1  0  0  0
  7  9  1  0  0  0
  8 72  1  0  0  0
  8 73  1  0  0  0
  8 74  1  0  0  0
  9 10  1  0  0  0
  9 75  1  0  0  0
  9 76  1  0  0  0
 10 11  1  0  0  0
 10 13  1  0  0  0
 10 77  1  0  0  0
 11 12  1  0  0  0
 12 78  1  0  0  0
 12 79  1  0  0  0
 12 80  1  0  0  0
 13 14  1  0  0  0
 13 81  1  0  0  0
 13 82  1  0  0  0
 14 15  2  0  0  0
 14 18  1  0  0  0
 15 16  1  0  0  0
 15 83  1  0  0  0
 16 17  2  0  0  0
 16 20  1  0  0  0
 18 19  1  0  0  0
 18 84  1  0  0  0
 18 85  1  0  0  0
 19 20  1  0  0  0
 19 21  1  0  0  0
 19 86  1  0  0  0
 21 22  1  0  0  0
 21 23  1  0  0  0
 21 87  1  0  0  0
 22 88  1  0  0  0
 22 89  1  0  0  0
 22 90  1  0  0  0
 23 24  1  0  0  0
 23 26  1  0  0  0
 23 91  1  0  0  0
 24 25  1  0  0  0
 25 92  1  0  0  0
 25 93  1  0  0  0
 25 94  1  0  0  0
 26 27  1  0  0  0
 26 95  1  0  0  0
 26 96  1  0  0  0
 27 28  1  0  0  0
 27 30  1  0  0  0
 27 97  1  0  0  0
 28 29  1  0  0  0
 29 98  1  0  0  0
 29 99  1  0  0  0
 29100  1  0  0  0
 30 31  2  0  0  0
 30101  1  0  0  0
 31 32  1  0  0  0
 31102  1  0  0  0
 32 33  1  0  0  0
 32 34  1  0  0  0
 32103  1  0  0  0
 33104  1  0  0  0
 33105  1  0  0  0
 33106  1  0  0  0
 34 35  1  0  0  0
 34 37  1  0  0  0
 34107  1  0  0  0
 35 36  1  0  0  0
 36108  1  0  0  0
 36109  1  0  0  0
 36110  1  0  0  0
 37 38  1  0  0  0
 37111  1  0  0  0
 37112  1  0  0  0
 38 39  1  0  0  0
 38 41  1  0  0  0
 38113  1  0  0  0
 39 40  1  0  0  0
 40114  1  0  0  0
 40115  1  0  0  0
 40116  1  0  0  0
 41 42  2  0  0  0
 41117  1  0  0  0
 42 43  1  0  0  0
 42118  1  0  0  0
 43 44  1  0  0  0
 43 45  1  0  0  0
 43119  1  0  0  0
 44120  1  0  0  0
 44121  1  0  0  0
 44122  1  0  0  0
 45 46  1  0  0  0
 45123  1  0  0  0
 46 47  1  0  0  0
 46 48  1  0  0  0
 46124  1  0  0  0
 47125  1  0  0  0
 47126  1  0  0  0
 47127  1  0  0  0
 48 49  1  0  0  0
 48 51  1  0  0  0
 48128  1  0  0  0
 49 50  1  0  0  0
 50129  1  0  0  0
 50130  1  0  0  0
 50131  1  0  0  0
 51 52  1  0  0  0
 51 53  1  0  0  0
 51132  1  0  0  0
 52133  1  0  0  0
 52134  1  0  0  0
 52135  1  0  0  0
 53 54  1  0  0  0
 53136  1  0  0  0
 53137  1  0  0  0
 54 55  1  0  0  0
 54138  1  0  0  0
 54139  1  0  0  0
 55 56  2  0  0  0
 55 57  1  0  0  0
 57 58  1  0  0  0
 57 59  1  0  0  0
 57140  1  0  0  0
 58141  1  0  0  0
 58142  1  0  0  0
 58143  1  0  0  0
 59 60  1  0  0  0
 59 62  1  0  0  0
 59144  1  0  0  0
 60 61  1  0  0  0
 61145  1  0  0  0
 61146  1  0  0  0
 61147  1  0  0  0
 62 63  1  0  0  0
 62148  1  0  0  0
 62149  1  0  0  0
 63 64  2  0  0  0
 63150  1  0  0  0
 64 65  1  0  0  0
 64151  1  0  0  0
 65 66  1  0  0  0
 65 67  1  0  0  0
 66152  1  0  0  0
 66153  1  0  0  0
 66154  1  0  0  0
 67 68  2  0  0  0
 67155  1  0  0  0
M  END
