2IYF
                    3D
 Structure written by MMmdl.
119121  0  0  1  0            999 V2000
   14.4878   57.9931   46.6454 C   0  0  2  0  0  0
   15.9688   57.6441   46.8334 C   0  0  2  0  0  0
   16.6168   56.6531   45.8214 C   0  0  2  0  0  0
   18.1508   56.7441   45.9154 C   0  0  2  0  0  0
   18.5258   57.9541   45.2404 O   0  0  0  0  0  0
   19.4468   60.1731   45.1444 C   0  0  2  0  0  0
   18.7388   61.3641   45.8064 C   0  0  2  0  0  0
   17.3508   61.6251   45.1974 C   0  0  1  0  0  0
   16.5168   62.5591   46.1394 C   0  0  2  0  0  0
   15.5288   61.7841   47.0304 C   0  0  2  0  0  0
   14.4248   61.1571   46.1564 C   0  0  0  0  0  0
   13.4128   60.3451   46.9864 C   0  0  2  0  0  0
   13.9988   59.0871   47.5814 C   0  0  0  0  0  0
   14.0318   58.9041   48.8024 O   0  0  0  0  0  0
   19.2168   58.9581   45.9664 C   0  0  0  0  0  0
   19.5488   58.8081   47.1334 O   0  0  0  0  0  0
   19.5458   62.5481   45.7194 O   0  0  0  0  0  0
   15.7978   63.4401   45.3174 O   0  0  0  0  0  0
   13.5348   56.8191   46.8724 C   0  0  0  0  0  0
   12.1868   60.0001   46.1414 C   0  0  0  0  0  0
   16.1328   56.9181   44.4004 C   0  0  0  0  0  0
   16.1428   57.1801   48.1864 O   0  0  0  0  0  0
   16.1448   55.3351   46.1044 O   0  0  0  0  0  0
   18.8898   55.6151   45.1924 C   0  0  0  0  0  0
   20.9778   60.2361   44.9444 C   0  0  0  0  0  0
   14.9938   62.6351   48.1954 C   0  0  0  0  0  0
   16.2418   60.7051   47.6034 O   0  0  0  0  0  0
   16.1438   64.8271   45.4334 C   0  0  1  0  0  0
   15.4918   65.6131   44.2874 C   0  0  1  0  0  0
   15.6908   67.1131   44.5124 C   0  0  2  0  0  0
   15.2468   67.5151   45.9384 C   0  0  0  0  0  0
   15.9358   66.6471   47.0034 C   0  0  2  0  0  0
   15.6788   65.2671   46.7024 O   0  0  0  0  0  0
   14.8508   67.9281   43.6004 N   0  3  0  0  0  0
   15.3298   66.9001   48.3734 C   0  0  0  0  0  0
   16.1298   65.2811   43.0494 O   0  0  0  0  0  0
   15.3118   69.2851   43.3214 C   0  0  0  0  0  0
   20.4218   62.7491   46.8514 C   0  0  1  0  0  0
   21.5998   63.6381   46.4274 C   0  0  0  0  0  0
   21.2318   65.1271   46.2964 C   0  0  2  0  0  0
   20.5848   65.6061   47.6074 C   0  0  2  0  0  0
   19.3938   64.6971   47.9194 C   0  0  1  0  0  0
   19.7408   63.2981   47.9844 O   0  0  0  0  0  0
   20.2768   65.3421   45.2454 O   0  0  0  0  0  0
   20.0828   66.9381   47.4014 O   0  0  0  0  0  0
   20.4968   65.1101   43.8324 C   0  0  0  0  0  0
   13.5258   67.5091   43.1584 C   0  0  0  0  0  0
   18.7818   65.0151   49.2904 C   0  0  0  0  0  0
   20.3678   55.6391   45.5244 C   0  0  0  0  0  0
   17.5268   62.1841   43.7774 C   0  0  0  0  0  0
   22.4768   65.9931   46.0274 C   0  0  0  0  0  0
   14.4575   58.3259   45.5974 H   0  0  0  0  0  0
   16.5279   58.5825   46.7036 H   0  0  0  0  0  0
   18.4488   56.7512   46.9743 H   0  0  0  0  0  0
   18.9857   60.1428   44.1462 H   0  0  0  0  0  0
   18.6381   61.1627   46.8832 H   0  0  0  0  0  0
   16.7924   60.6827   45.0972 H   0  0  0  0  0  0
   17.1628   63.1718   46.7854 H   0  0  0  0  0  0
   13.8751   61.9533   45.6330 H   0  0  0  0  0  0
   14.8810   60.4806   45.4188 H   0  0  0  0  0  0
   13.1183   60.9713   47.8415 H   0  0  0  0  0  0
   12.4982   57.1533   46.7185 H   0  0  0  0  0  0
   13.6509   56.4461   47.9007 H   0  0  0  0  0  0
   13.7697   56.0134   46.1614 H   0  0  0  0  0  0
   11.4747   59.4211   46.7478 H   0  0  0  0  0  0
   12.4974   59.4034   45.2712 H   0  0  0  0  0  0
   11.7059   60.9276   45.7973 H   0  0  0  0  0  0
   16.6077   56.2035   43.7121 H   0  0  0  0  0  0
   16.4013   57.9437   44.1069 H   0  0  0  0  0  0
   15.0402   56.7984   44.3569 H   0  0  0  0  0  0
   17.1387   56.8736   48.5390 H   0  0  0  0  0  0
   16.4881   54.4855   45.4960 H   0  0  0  0  0  0
   18.4727   54.6459   45.5033 H   0  0  0  0  0  0
   18.7689   55.7347   44.1057 H   0  0  0  0  0  0
   21.3227   59.3104   44.4607 H   0  0  0  0  0  0
   21.4710   60.3450   45.9216 H   0  0  0  0  0  0
   21.2293   61.0978   44.3087 H   0  0  0  0  0  0
   14.2954   62.0351   48.7973 H   0  0  0  0  0  0
   14.4701   63.5160   47.7957 H   0  0  0  0  0  0
   15.8334   62.9626   48.8261 H   0  0  0  0  0  0
   15.7311   60.0080   48.2841 H   0  0  0  0  0  0
   17.2372   64.9474   45.4282 H   0  0  0  0  0  0
   14.4303   65.3408   44.1926 H   0  0  0  0  0  0
   16.7520   67.3156   44.3056 H   0  0  0  0  0  0
   15.5095   68.5675   46.1213 H   0  0  0  0  0  0
   14.1584   67.3871   46.0334 H   0  0  0  0  0  0
   17.0208   66.8282   47.0006 H   0  0  0  0  0  0
   15.8358   66.2705   49.1201 H   0  0  0  0  0  0
   14.2580   66.6534   48.3515 H   0  0  0  0  0  0
   15.4568   67.9596   48.6406 H   0  0  0  0  0  0
   15.7928   65.7510   42.1137 H   0  0  0  0  0  0
   14.6057   69.7788   42.6375 H   0  0  0  0  0  0
   16.3072   69.2455   42.8550 H   0  0  0  0  0  0
   15.3697   69.8532   44.2616 H   0  0  0  0  0  0
   20.7281   61.7494   47.1933 H   0  0  0  0  0  0
   22.4035   63.5628   47.1747 H   0  0  0  0  0  0
   21.9766   63.3055   45.4490 H   0  0  0  0  0  0
   21.3054   65.6447   48.4376 H   0  0  0  0  0  0
   18.6992   64.8261   47.0763 H   0  0  0  0  0  0
   19.5786   67.4689   48.2224 H   0  0  0  0  0  0
   19.5846   65.3644   43.2728 H   0  0  0  0  0  0
   20.7439   64.0508   43.6689 H   0  0  0  0  0  0
   21.3288   65.7390   43.4828 H   0  0  0  0  0  0
   13.1027   68.2747   42.4915 H   0  0  0  0  0  0
   12.8707   67.3821   44.0329 H   0  0  0  0  0  0
   13.6046   66.5545   42.6175 H   0  0  0  0  0  0
   17.9314   64.3428   49.4772 H   0  0  0  0  0  0
   18.4340   66.0586   49.3036 H   0  0  0  0  0  0
   19.5413   64.8719   50.0731 H   0  0  0  0  0  0
   20.8760   54.8203   44.9942 H   0  0  0  0  0  0
   20.5021   55.5128   46.6089 H   0  0  0  0  0  0
   20.7983   56.6017   45.2113 H   0  0  0  0  0  0
   16.5386   62.3742   43.3331 H   0  0  0  0  0  0
   18.0717   61.4541   43.1610 H   0  0  0  0  0  0
   18.0960   63.1243   43.8215 H   0  0  0  0  0  0
   22.1776   67.0480   45.9397 H   0  0  0  0  0  0
   22.9541   65.6682   45.0911 H   0  0  0  0  0  0
   23.1877   65.8815   46.8594 H   0  0  0  0  0  0
   14.9664   67.3358   42.6807 H   0  0  0  0  0  0
  1  2  1  0  0  0
  1 13  1  0  0  0
  1 19  1  0  0  0
  1 52  1  0  0  0
  2  3  1  0  0  0
  2 22  1  0  0  0
  2 53  1  0  0  0
  3  4  1  0  0  0
  3 21  1  0  0  0
  3 23  1  0  0  0
  4  5  1  0  0  0
  4 24  1  0  0  0
  4 54  1  0  0  0
  5 15  1  0  0  0
  6  7  1  0  0  0
  6 15  1  0  0  0
  6 25  1  0  0  0
  6 55  1  0  0  0
  7  8  1  0  0  0
  7 17  1  0  0  0
  7 56  1  0  0  0
  8  9  1  0  0  0
  8 50  1  0  0  0
  8 57  1  0  0  0
  9 10  1  0  0  0
  9 18  1  0  0  0
  9 58  1  0  0  0
 10 11  1  0  0  0
 10 26  1  0  0  0
 10 27  1  0  0  0
 11 12  1  0  0  0
 11 59  1  0  0  0
 11 60  1  0  0  0
 12 13  1  0  0  0
 12 20  1  0  0  0
 12 61  1  0  0  0
 13 14  2  0  0  0
 15 16  2  0  0  0
 17 38  1  0  0  0
 18 28  1  0  0  0
 19 62  1  0  0  0
 19 63  1  0  0  0
 19 64  1  0  0  0
 20 65  1  0  0  0
 20 66  1  0  0  0
 20 67  1  0  0  0
 21 68  1  0  0  0
 21 69  1  0  0  0
 21 70  1  0  0  0
 22 71  1  0  0  0
 23 72  1  0  0  0
 24 49  1  0  0  0
 24 73  1  0  0  0
 24 74  1  0  0  0
 25 75  1  0  0  0
 25 76  1  0  0  0
 25 77  1  0  0  0
 26 78  1  0  0  0
 26 79  1  0  0  0
 26 80  1  0  0  0
 27 81  1  0  0  0
 28 29  1  0  0  0
 28 33  1  0  0  0
 28 82  1  0  0  0
 29 30  1  0  0  0
 29 36  1  0  0  0
 29 83  1  0  0  0
 30 31  1  0  0  0
 30 34  1  0  0  0
 30 84  1  0  0  0
 31 32  1  0  0  0
 31 85  1  0  0  0
 31 86  1  0  0  0
 32 33  1  0  0  0
 32 35  1  0  0  0
 32 87  1  0  0  0
 34 37  1  0  0  0
 34 47  1  0  0  0
 34119  1  0  0  0
 35 88  1  0  0  0
 35 89  1  0  0  0
 35 90  1  0  0  0
 36 91  1  0  0  0
 37 92  1  0  0  0
 37 93  1  0  0  0
 37 94  1  0  0  0
 38 39  1  0  0  0
 38 43  1  0  0  0
 38 95  1  0  0  0
 39 40  1  0  0  0
 39 96  1  0  0  0
 39 97  1  0  0  0
 40 41  1  0  0  0
 40 44  1  0  0  0
 40 51  1  0  0  0
 41 42  1  0  0  0
 41 45  1  0  0  0
 41 98  1  0  0  0
 42 43  1  0  0  0
 42 48  1  0  0  0
 42 99  1  0  0  0
 44 46  1  0  0  0
 45100  1  0  0  0
 46101  1  0  0  0
 46102  1  0  0  0
 46103  1  0  0  0
 47104  1  0  0  0
 47105  1  0  0  0
 47106  1  0  0  0
 48107  1  0  0  0
 48108  1  0  0  0
 48109  1  0  0  0
 49110  1  0  0  0
 49111  1  0  0  0
 49112  1  0  0  0
 50113  1  0  0  0
 50114  1  0  0  0
 50115  1  0  0  0
 51116  1  0  0  0
 51117  1  0  0  0
 51118  1  0  0  0
M  CHG  1  34   1
M  END
