2IYA
                    3D
 Structure written by MMmdl.
110113  0  0  1  0            999 V2000
   42.6870   53.6660   28.6380 C   0  0  2  0  0  0
   43.6820   53.4270   29.7960 C   0  0  2  0  0  0
   43.2380   53.5750   31.2940 C   0  0  2  0  0  0
   44.4320   53.2270   32.2240 C   0  0  2  0  0  0
   44.7330   51.8460   32.0230 O   0  0  0  0  0  0
   45.9600   49.9730   30.8840 C   0  0  2  0  0  0
   46.0900   49.9060   29.3270 C   0  0  2  0  0  0
   45.3040   48.7320   28.6640 C   0  0  1  0  0  0
   45.2460   48.8240   27.0970 C   0  0  2  0  0  0
   44.6660   50.1550   26.5240 C   0  0  2  0  0  0
   43.1490   50.1490   26.8150 C   0  0  0  0  0  0
   42.3820   51.4290   27.1820 C   0  0  1  0  0  0
   43.0950   52.7530   27.4730 C   0  0  0  0  0  0
   44.1680   53.1680   26.6670 O   0  0  0  0  0  0
   45.8580   51.4510   31.2920 C   0  0  0  0  0  0
   46.8060   52.3860   30.8540 O   0  0  0  0  0  0
   47.4520   49.8680   28.9350 O   0  0  0  0  0  0
   44.3930   47.7850   26.6280 O   0  0  0  0  0  0
   42.4870   55.1200   28.1760 C   0  0  0  0  0  0
   41.1300   51.6270   26.3130 C   0  0  0  0  0  0
   42.0260   52.6980   31.6640 C   0  0  0  0  0  0
   44.8970   54.1090   29.5320 O   0  0  0  0  0  0
   44.1740   53.4520   33.7230 C   0  0  0  0  0  0
   47.0900   49.3170   31.6980 C   0  0  0  0  0  0
   44.9140   50.3590   25.0140 C   0  0  0  0  0  0
   45.0890   46.7780   25.8990 C   0  0  1  0  0  0
   44.1510   45.5740   25.8040 C   0  0  1  0  0  0
   44.7330   44.5040   24.8530 C   0  0  2  0  0  0
   45.1760   45.1130   23.5100 C   0  0  0  0  0  0
   46.1330   46.2800   23.7900 C   0  0  2  0  0  0
   45.4700   47.2390   24.6130 O   0  0  0  0  0  0
   43.8410   43.3430   24.7200 N   0  3  0  0  0  0
   46.5430   47.0300   22.5160 C   0  0  0  0  0  0
   43.9330   44.9960   27.0810 O   0  0  0  0  0  0
   44.4730   42.2100   24.0110 C   0  0  0  0  0  0
   47.9700   50.8980   28.1100 C   0  0  1  0  0  0
   49.3420   51.3170   28.6930 C   0  0  0  0  0  0
   50.4170   50.2110   28.4950 C   0  0  1  0  0  0
   50.4260   49.7420   27.0250 C   0  0  2  0  0  0
   48.9900   49.4070   26.5510 C   0  0  1  0  0  0
   48.0750   50.4880   26.7490 O   0  0  0  0  0  0
   51.7300   50.6660   28.8680 O   0  0  0  0  0  0
   51.2020   48.5520   26.8960 O   0  0  0  0  0  0
   41.0560   51.2950   27.6760 O   0  0  0  0  0  0
   51.8720   50.7870   30.2860 C   0  0  0  0  0  0
   42.4400   43.5830   24.3340 C   0  0  0  0  0  0
   48.9150   49.0360   25.0570 C   0  0  0  0  0  0
   45.7910   47.3630   29.1910 C   0  0  0  0  0  0
   41.6891   53.4155   29.0271 H   0  0  0  0  0  0
   43.9071   52.3530   29.7196 H   0  0  0  0  0  0
   42.9151   54.6158   31.4441 H   0  0  0  0  0  0
   45.3030   53.8384   31.9455 H   0  0  0  0  0  0
   45.0645   49.3891   31.1431 H   0  0  0  0  0  0
   45.7204   50.8549   28.9110 H   0  0  0  0  0  0
   44.2568   48.8208   28.9889 H   0  0  0  0  0  0
   46.2643   48.6759   26.7082 H   0  0  0  0  0  0
   45.1798   50.9999   27.0058 H   0  0  0  0  0  0
   42.6072   49.7853   25.9295 H   0  0  0  0  0  0
   42.9420   49.4872   27.6689 H   0  0  0  0  0  0
   41.7584   55.1461   27.3523 H   0  0  0  0  0  0
   43.4471   55.5299   27.8294 H   0  0  0  0  0  0
   42.1125   55.7234   29.0160 H   0  0  0  0  0  0
   41.1228   52.6497   25.9080 H   0  0  0  0  0  0
   41.1411   50.9043   25.4838 H   0  0  0  0  0  0
   41.7717   52.8520   32.7231 H   0  0  0  0  0  0
   42.2746   51.6396   31.4967 H   0  0  0  0  0  0
   41.1667   52.9765   31.0363 H   0  0  0  0  0  0
   45.7270   54.0526   30.2517 H   0  0  0  0  0  0
   45.0730   53.1787   34.2949 H   0  0  0  0  0  0
   43.3289   52.8270   34.0474 H   0  0  0  0  0  0
   43.9355   54.5113   33.8990 H   0  0  0  0  0  0
   46.8822   49.4314   32.7721 H   0  0  0  0  0  0
   48.0464   49.8034   31.4557 H   0  0  0  0  0  0
   47.1489   48.2475   31.4478 H   0  0  0  0  0  0
   44.4746   51.3161   24.6963 H   0  0  0  0  0  0
   44.4477   49.5367   24.4515 H   0  0  0  0  0  0
   45.9964   50.3695   24.8184 H   0  0  0  0  0  0
   46.0482   46.5759   26.3981 H   0  0  0  0  0  0
   43.1555   45.9135   25.4821 H   0  0  0  0  0  0
   45.6277   44.0545   25.3086 H   0  0  0  0  0  0
   45.6880   44.3458   22.9106 H   0  0  0  0  0  0
   44.2934   45.4767   22.9634 H   0  0  0  0  0  0
   47.0121   45.8862   24.3211 H   0  0  0  0  0  0
   47.2259   47.8516   22.7779 H   0  0  0  0  0  0
   45.6468   47.4398   22.0273 H   0  0  0  0  0  0
   47.0503   46.3363   21.8294 H   0  0  0  0  0  0
   43.2787   44.1176   27.1827 H   0  0  0  0  0  0
   43.7593   41.3757   23.9435 H   0  0  0  0  0  0
   45.3666   41.8843   24.5636 H   0  0  0  0  0  0
   44.7633   42.5271   22.9985 H   0  0  0  0  0  0
   47.2173   51.6993   28.0731 H   0  0  0  0  0  0
   49.6906   52.2308   28.1896 H   0  0  0  0  0  0
   49.2391   51.5088   29.7712 H   0  0  0  0  0  0
   50.2278   49.3744   29.1837 H   0  0  0  0  0  0
   50.9097   50.5056   26.3981 H   0  0  0  0  0  0
   48.6402   48.5873   27.1958 H   0  0  0  0  0  0
   51.3180   48.0750   25.9116 H   0  0  0  0  0  0
   52.8875   51.1363   30.5243 H   0  0  0  0  0  0
   51.7013   49.8075   30.7565 H   0  0  0  0  0  0
   51.1364   51.5103   30.6677 H   0  0  0  0  0  0
   41.9058   42.6231   24.2771 H   0  0  0  0  0  0
   42.4099   44.0782   23.3522 H   0  0  0  0  0  0
   41.9581   44.2269   25.0844 H   0  0  0  0  0  0
   47.8727   48.8107   24.7870 H   0  0  0  0  0  0
   49.5423   48.1527   24.8666 H   0  0  0  0  0  0
   49.2765   49.8799   24.4511 H   0  0  0  0  0  0
   45.2188   46.5586   28.7056 H   0  0  0  0  0  0
   45.6405   47.3146   30.2796 H   0  0  0  0  0  0
   46.8602   47.2416   28.9629 H   0  0  0  0  0  0
   43.7065   43.0500   25.7717 H   0  0  0  0  0  0
  1  2  1  0  0  0
  1 13  1  0  0  0
  1 19  1  0  0  0
  1 49  1  0  0  0
  2  3  1  0  0  0
  2 22  1  0  0  0
  2 50  1  0  0  0
  3  4  1  0  0  0
  3 21  1  0  0  0
  3 51  1  0  0  0
  4  5  1  0  0  0
  4 23  1  0  0  0
  4 52  1  0  0  0
  5 15  1  0  0  0
  6  7  1  0  0  0
  6 15  1  0  0  0
  6 24  1  0  0  0
  6 53  1  0  0  0
  7  8  1  0  0  0
  7 17  1  0  0  0
  7 54  1  0  0  0
  8  9  1  0  0  0
  8 48  1  0  0  0
  8 55  1  0  0  0
  9 10  1  0  0  0
  9 18  1  0  0  0
  9 56  1  0  0  0
 10 11  1  0  0  0
 10 25  1  0  0  0
 10 57  1  0  0  0
 11 12  1  0  0  0
 11 58  1  0  0  0
 11 59  1  0  0  0
 12 13  1  0  0  0
 12 20  1  0  0  0
 12 44  1  0  0  0
 13 14  2  0  0  0
 15 16  2  0  0  0
 17 36  1  0  0  0
 18 26  1  0  0  0
 19 60  1  0  0  0
 19 61  1  0  0  0
 19 62  1  0  0  0
 20 44  1  0  0  0
 20 63  1  0  0  0
 20 64  1  0  0  0
 21 65  1  0  0  0
 21 66  1  0  0  0
 21 67  1  0  0  0
 22 68  1  0  0  0
 23 69  1  0  0  0
 23 70  1  0  0  0
 23 71  1  0  0  0
 24 72  1  0  0  0
 24 73  1  0  0  0
 24 74  1  0  0  0
 25 75  1  0  0  0
 25 76  1  0  0  0
 25 77  1  0  0  0
 26 27  1  0  0  0
 26 31  1  0  0  0
 26 78  1  0  0  0
 27 28  1  0  0  0
 27 34  1  0  0  0
 27 79  1  0  0  0
 28 29  1  0  0  0
 28 32  1  0  0  0
 28 80  1  0  0  0
 29 30  1  0  0  0
 29 81  1  0  0  0
 29 82  1  0  0  0
 30 31  1  0  0  0
 30 33  1  0  0  0
 30 83  1  0  0  0
 32 35  1  0  0  0
 32 46  1  0  0  0
 32110  1  0  0  0
 33 84  1  0  0  0
 33 85  1  0  0  0
 33 86  1  0  0  0
 34 87  1  0  0  0
 35 88  1  0  0  0
 35 89  1  0  0  0
 35 90  1  0  0  0
 36 37  1  0  0  0
 36 41  1  0  0  0
 36 91  1  0  0  0
 37 38  1  0  0  0
 37 92  1  0  0  0
 37 93  1  0  0  0
 38 39  1  0  0  0
 38 42  1  0  0  0
 38 94  1  0  0  0
 39 40  1  0  0  0
 39 43  1  0  0  0
 39 95  1  0  0  0
 40 41  1  0  0  0
 40 47  1  0  0  0
 40 96  1  0  0  0
 42 45  1  0  0  0
 43 97  1  0  0  0
 45 98  1  0  0  0
 45 99  1  0  0  0
 45100  1  0  0  0
 46101  1  0  0  0
 46102  1  0  0  0
 46103  1  0  0  0
 47104  1  0  0  0
 47105  1  0  0  0
 47106  1  0  0  0
 48107  1  0  0  0
 48108  1  0  0  0
 48109  1  0  0  0
M  CHG  1  32   1
M  END
