2ASP
                    3D
 Structure written by MMmdl.
147148  0  0  1  0            999 V2000
   14.6127   63.0920   45.4131 O   0  0  0  0  0  0
   15.7697   62.7560   45.5161 C   0  0  0  0  0  0
   16.8277   63.4860   45.0631 O   0  0  0  0  0  0
   16.2567   61.4620   46.1321 C   0  0  0  0  0  0
   15.3367   60.5980   46.5621 C   0  0  0  0  0  0
   15.7897   59.2720   47.1691 C   0  0  0  0  0  0
   14.9477   58.3180   47.6181 C   0  0  0  0  0  0
   13.3847   58.4530   47.6001 C   0  0  0  0  0  0
   15.6567   57.0710   48.1461 C   0  0  0  0  0  0
   15.4887   56.9300   49.6741 C   0  0  1  0  0  0
   14.0727   56.4200   49.8401 O   0  0  0  0  0  0
   13.5897   56.5200   51.2771 C   0  0  0  0  0  0
   16.4907   55.8980   50.2011 C   0  0  0  0  0  0
   17.8787   56.4110   50.1221 C   0  0  0  0  0  0
   18.7597   55.8300   49.3321 C   0  0  0  0  0  0
   20.1537   56.3230   49.1941 C   0  0  0  0  0  0
   20.9567   55.8230   48.4471 O   0  0  0  0  0  0
   18.2437   57.6440   50.9021 C   0  0  0  0  0  0
   19.7457   57.8350   51.0921 C   0  0  1  0  0  0
   20.5407   57.4280   49.9271 O   0  0  0  0  0  0
   20.1797   59.2590   51.3611 C   0  0  2  0  0  0
   21.6517   59.3360   51.7671 C   0  0  0  0  0  0
   19.4357   60.0110   52.4461 C   0  0  1  0  0  0
   19.2017   59.2810   53.6191 O   0  0  0  0  0  0
   18.2587   59.2750   54.6851 C   0  0  0  0  0  0
   19.7037   61.4640   52.7941 C   0  0  0  0  0  0
   19.3577   62.4560   51.6311 C   0  0  2  0  0  0
   20.0367   63.6810   52.0491 O   0  0  0  0  0  0
   20.1117   64.7200   51.0341 C   0  0  0  0  0  0
   17.8027   62.6210   51.7851 C   0  0  0  0  0  0
   17.1467   62.3240   50.6691 C   0  0  0  0  0  0
   15.6277   62.4620   50.6601 C   0  0  2  0  0  0
   14.9997   61.1140   50.4561 C   0  0  0  0  0  0
   15.1517   63.4810   49.6051 C   0  0  1  0  0  0
   13.7237   63.6110   49.6601 O   0  0  0  0  0  0
   12.9727   63.1600   48.5301 C   0  0  0  0  0  0
   15.7467   64.8340   49.9301 C   0  0  0  0  0  0
   15.5497   65.9120   48.8901 C   0  0  1  0  0  0
   15.8137   67.1670   49.4661 O   0  0  0  0  0  0
   15.2237   68.4090   49.1061 C   0  0  0  0  0  0
   16.3517   65.8110   47.6311 C   0  0  0  0  0  0
   15.9817   65.9040   46.3561 C   0  0  0  0  0  0
   16.9307   65.8470   45.1511 C   0  0  2  0  0  0
   16.5957   67.1540   44.4421 C   0  0  0  0  0  0
   16.4897   64.6450   44.2881 C   0  0  1  0  0  0
   17.3477   64.5780   42.9591 C   0  0  1  0  0  0
   18.8637   64.3570   43.1941 C   0  0  0  0  0  0
   16.8167   63.3950   42.1011 C   0  0  1  0  0  0
   15.4287   63.7170   41.7821 O   0  0  0  0  0  0
   14.5217   62.6260   41.9171 C   0  0  0  0  0  0
   17.5587   63.2670   40.7371 C   0  0  1  0  0  0
   17.0017   62.0420   39.9471 C   0  0  0  0  0  0
   17.5797   64.5150   39.8451 C   0  0  0  0  0  0
   18.4297   64.2700   38.5691 C   0  0  0  0  0  0
   18.6957   65.6300   37.8661 C   0  0  0  0  0  0
   18.3867   66.7010   38.2981 O   0  0  0  0  0  0
   19.4457   65.2990   36.5901 C   0  0  2  0  0  0
   20.6367   66.3570   36.5091 C   0  0  0  0  0  0
   18.5257   65.5480   35.3281 C   0  0  2  0  0  0
   17.4177   64.6880   35.5701 O   0  0  0  0  0  0
   16.2457   65.1850   34.9261 C   0  0  0  0  0  0
   19.2627   65.0460   34.0221 C   0  0  0  0  0  0
   19.9217   63.6390   34.0861 C   0  0  0  0  0  0
   17.3256   61.2221   46.2316 H   0  0  0  0  0  0
   14.2681   60.8448   46.4771 H   0  0  0  0  0  0
   16.8772   59.1181   47.2287 H   0  0  0  0  0  0
   12.9331   57.5418   48.0194 H   0  0  0  0  0  0
   13.0404   58.5897   46.5644 H   0  0  0  0  0  0
   13.0848   59.3222   48.2039 H   0  0  0  0  0  0
   15.2331   56.1770   47.6651 H   0  0  0  0  0  0
   16.7309   57.1358   47.9182 H   0  0  0  0  0  0
   15.6527   57.8643   50.2310 H   0  0  0  0  0  0
   12.5601   56.1387   51.3452 H   0  0  0  0  0  0
   13.6134   57.5714   51.5996 H   0  0  0  0  0  0
   14.2458   55.9222   51.9269 H   0  0  0  0  0  0
   16.2609   55.6672   51.2518 H   0  0  0  0  0  0
   16.4211   54.9793   49.6002 H   0  0  0  0  0  0
   18.4724   54.9457   48.7443 H   0  0  0  0  0  0
   17.8666   58.5345   50.3779 H   0  0  0  0  0  0
   17.7935   57.5905   51.9044 H   0  0  0  0  0  0
   19.9615   57.1820   51.9506 H   0  0  0  0  0  0
   19.9471   59.7297   50.3945 H   0  0  0  0  0  0
   21.9263   60.3848   51.9531 H   0  0  0  0  0  0
   22.2769   58.9312   50.9577 H   0  0  0  0  0  0
   21.8108   58.7474   52.6827 H   0  0  0  0  0  0
   18.4766   60.0467   51.9086 H   0  0  0  0  0  0
   18.5139   58.4752   55.3959 H   0  0  0  0  0  0
   17.2505   59.0991   54.2818 H   0  0  0  0  0  0
   18.2828   60.2460   55.2015 H   0  0  0  0  0  0
   19.0957   61.7506   53.6649 H   0  0  0  0  0  0
   20.7697   61.5933   53.0327 H   0  0  0  0  0  0
   19.6716   62.2203   50.6036 H   0  0  0  0  0  0
   20.6373   65.5952   51.4435 H   0  0  0  0  0  0
   19.0949   65.0112   50.7317 H   0  0  0  0  0  0
   20.6595   64.3393   50.1595 H   0  0  0  0  0  0
   17.2488   62.9406   52.6802 H   0  0  0  0  0  0
   17.6991   61.9875   49.7794 H   0  0  0  0  0  0
   15.3010   62.8296   51.6441 H   0  0  0  0  0  0
   13.9045   61.2168   50.4501 H   0  0  0  0  0  0
   15.3004   60.4419   51.2734 H   0  0  0  0  0  0
   15.3339   60.6954   49.4954 H   0  0  0  0  0  0
   15.4051   63.1517   48.5866 H   0  0  0  0  0  0
   11.9003   63.3217   48.7144 H   0  0  0  0  0  0
   13.1596   62.0879   48.3698 H   0  0  0  0  0  0
   13.2803   63.7234   47.6369 H   0  0  0  0  0  0
   15.2973   65.2190   50.8574 H   0  0  0  0  0  0
   16.8339   64.7339   50.0636 H   0  0  0  0  0  0
   14.4929   65.8484   48.5914 H   0  0  0  0  0  0
   15.6360   69.2081   49.7397 H   0  0  0  0  0  0
   14.1345   68.3527   49.2493 H   0  0  0  0  0  0
   15.4440   68.6273   48.0508 H   0  0  0  0  0  0
   17.4064   65.6304   47.8860 H   0  0  0  0  0  0
   14.9198   66.0329   46.0996 H   0  0  0  0  0  0
   18.0021   65.7464   45.3791 H   0  0  0  0  0  0
   17.2151   67.2500   43.5382 H   0  0  0  0  0  0
   16.7977   67.9992   45.1165 H   0  0  0  0  0  0
   15.5325   67.1560   44.1600 H   0  0  0  0  0  0
   15.4089   64.6608   44.0841 H   0  0  0  0  0  0
   17.2556   65.5473   42.4473 H   0  0  0  0  0  0
   19.3837   64.3229   42.2254 H   0  0  0  0  0  0
   19.0175   63.4068   43.7266 H   0  0  0  0  0  0
   19.2657   65.1845   43.7972 H   0  0  0  0  0  0
   16.8953   62.4538   42.6650 H   0  0  0  0  0  0
   13.5060   62.9594   41.6579 H   0  0  0  0  0  0
   14.5350   62.2645   42.9559 H   0  0  0  0  0  0
   14.8240   61.8121   41.2417 H   0  0  0  0  0  0
   18.6192   63.1417   41.0010 H   0  0  0  0  0  0
   17.5284   61.9558   38.9853 H   0  0  0  0  0  0
   15.9259   62.1816   39.7649 H   0  0  0  0  0  0
   17.1581   61.1251   40.5344 H   0  0  0  0  0  0
   16.5525   64.7668   39.5427 H   0  0  0  0  0  0
   18.0145   65.3573   40.4032 H   0  0  0  0  0  0
   19.3864   63.8052   38.8495 H   0  0  0  0  0  0
   17.8833   63.6017   37.8873 H   0  0  0  0  0  0
   19.7542   64.2440   36.6333 H   0  0  0  0  0  0
   21.2279   66.1746   35.5996 H   0  0  0  0  0  0
   21.2821   66.2509   37.3935 H   0  0  0  0  0  0
   20.2212   67.3751   36.4783 H   0  0  0  0  0  0
   18.1732   66.5822   35.2010 H   0  0  0  0  0  0
   15.4025   64.5072   35.1252 H   0  0  0  0  0  0
   16.4204   65.2442   33.8417 H   0  0  0  0  0  0
   16.0105   66.1868   35.3149 H   0  0  0  0  0  0
   18.5444   65.0007   33.1902 H   0  0  0  0  0  0
   20.0744   65.7435   33.7681 H   0  0  0  0  0  0
   20.3966   63.4123   33.1202 H   0  0  0  0  0  0
   19.1523   62.8833   34.3028 H   0  0  0  0  0  0
   20.6823   63.6262   34.8807 H   0  0  0  0  0  0
  1  2  2  0  0  0
  2  3  1  0  0  0
  2  4  1  0  0  0
  3 45  1  0  0  0
  4  5  2  0  0  0
  4 64  1  0  0  0
  5  6  1  0  0  0
  5 65  1  0  0  0
  6  7  2  0  0  0
  6 66  1  0  0  0
  7  8  1  0  0  0
  7  9  1  0  0  0
  8 67  1  0  0  0
  8 68  1  0  0  0
  8 69  1  0  0  0
  9 10  1  0  0  0
  9 70  1  0  0  0
  9 71  1  0  0  0
 10 11  1  0  0  0
 10 13  1  0  0  0
 10 72  1  0  0  0
 11 12  1  0  0  0
 12 73  1  0  0  0
 12 74  1  0  0  0
 12 75  1  0  0  0
 13 14  1  0  0  0
 13 76  1  0  0  0
 13 77  1  0  0  0
 14 15  2  0  0  0
 14 18  1  0  0  0
 15 16  1  0  0  0
 15 78  1  0  0  0
 16 17  2  0  0  0
 16 20  1  0  0  0
 18 19  1  0  0  0
 18 79  1  0  0  0
 18 80  1  0  0  0
 19 20  1  0  0  0
 19 21  1  0  0  0
 19 81  1  0  0  0
 21 22  1  0  0  0
 21 23  1  0  0  0
 21 82  1  0  0  0
 22 83  1  0  0  0
 22 84  1  0  0  0
 22 85  1  0  0  0
 23 24  1  0  0  0
 23 26  1  0  0  0
 23 86  1  0  0  0
 24 25  1  0  0  0
 25 87  1  0  0  0
 25 88  1  0  0  0
 25 89  1  0  0  0
 26 27  1  0  0  0
 26 90  1  0  0  0
 26 91  1  0  0  0
 27 28  1  0  0  0
 27 30  1  0  0  0
 27 92  1  0  0  0
 28 29  1  0  0  0
 29 93  1  0  0  0
 29 94  1  0  0  0
 29 95  1  0  0  0
 30 31  2  0  0  0
 30 96  1  0  0  0
 31 32  1  0  0  0
 31 97  1  0  0  0
 32 33  1  0  0  0
 32 34  1  0  0  0
 32 98  1  0  0  0
 33 99  1  0  0  0
 33100  1  0  0  0
 33101  1  0  0  0
 34 35  1  0  0  0
 34 37  1  0  0  0
 34102  1  0  0  0
 35 36  1  0  0  0
 36103  1  0  0  0
 36104  1  0  0  0
 36105  1  0  0  0
 37 38  1  0  0  0
 37106  1  0  0  0
 37107  1  0  0  0
 38 39  1  0  0  0
 38 41  1  0  0  0
 38108  1  0  0  0
 39 40  1  0  0  0
 40109  1  0  0  0
 40110  1  0  0  0
 40111  1  0  0  0
 41 42  2  0  0  0
 41112  1  0  0  0
 42 43  1  0  0  0
 42113  1  0  0  0
 43 44  1  0  0  0
 43 45  1  0  0  0
 43114  1  0  0  0
 44115  1  0  0  0
 44116  1  0  0  0
 44117  1  0  0  0
 45 46  1  0  0  0
 45118  1  0  0  0
 46 47  1  0  0  0
 46 48  1  0  0  0
 46119  1  0  0  0
 47120  1  0  0  0
 47121  1  0  0  0
 47122  1  0  0  0
 48 49  1  0  0  0
 48 51  1  0  0  0
 48123  1  0  0  0
 49 50  1  0  0  0
 50124  1  0  0  0
 50125  1  0  0  0
 50126  1  0  0  0
 51 52  1  0  0  0
 51 53  1  0  0  0
 51127  1  0  0  0
 52128  1  0  0  0
 52129  1  0  0  0
 52130  1  0  0  0
 53 54  1  0  0  0
 53131  1  0  0  0
 53132  1  0  0  0
 54 55  1  0  0  0
 54133  1  0  0  0
 54134  1  0  0  0
 55 56  2  0  0  0
 55 57  1  0  0  0
 57 58  1  0  0  0
 57 59  1  0  0  0
 57135  1  0  0  0
 58136  1  0  0  0
 58137  1  0  0  0
 58138  1  0  0  0
 59 60  1  0  0  0
 59 62  1  0  0  0
 59139  1  0  0  0
 60 61  1  0  0  0
 61140  1  0  0  0
 61141  1  0  0  0
 61142  1  0  0  0
 62 63  1  0  0  0
 62143  1  0  0  0
 62144  1  0  0  0
 63145  1  0  0  0
 63146  1  0  0  0
 63147  1  0  0  0
M  END
