2ASO
                    3D
 Structure written by MMmdl.
153154  0  0  1  0            999 V2000
   25.6549   69.1874   48.7462 O   0  0  0  0  0  0
   25.0199   68.1674   48.8962 C   0  0  0  0  0  0
   23.5969   68.0864   48.4392 C   0  0  0  0  0  0
   22.8729   66.9844   48.5882 C   0  0  0  0  0  0
   23.5289   65.7344   49.2482 C   0  0  2  0  0  0
   22.8689   65.3804   50.4552 O   0  0  0  0  0  0
   21.4989   67.1264   48.0662 C   0  0  0  0  0  0
   21.2979   66.2724   46.9352 C   0  0  2  0  0  0
   22.2349   66.2014   45.8302 O   0  0  0  0  0  0
   22.2299   64.9364   45.1502 C   0  0  0  0  0  0
   19.9089   66.5854   46.3612 C   0  0  0  0  0  0
   18.7669   66.4404   47.2342 C   0  0  0  0  0  0
   18.2019   67.5134   48.1842 C   0  0  0  0  0  0
   18.2869   65.1794   47.0812 C   0  0  0  0  0  0
   17.0379   64.6274   47.7782 C   0  0  0  0  0  0
   16.3489   63.4864   47.6322 C   0  0  0  0  0  0
   16.6459   62.3734   46.6842 C   0  0  0  0  0  0
   17.5819   62.1604   45.9372 O   0  0  0  0  0  0
   15.5929   61.5664   46.7052 O   0  0  0  0  0  0
   25.6229   67.0714   49.4692 O   0  0  0  0  0  0
   25.1079   65.7274   49.0752 C   0  0  1  0  0  0
   25.5999   64.6344   50.1002 C   0  0  2  0  0  0
   27.1459   64.6744   50.1412 C   0  0  0  0  0  0
   25.0959   63.2414   49.6882 C   0  0  1  0  0  0
   25.7849   62.9184   48.4512 O   0  0  0  0  0  0
   25.1939   62.1634   47.4232 C   0  0  0  0  0  0
   25.1489   62.2644   50.7472 C   0  0  0  0  0  0
   23.9439   62.1034   51.6432 C   0  0  2  0  0  0
   24.2509   61.2004   52.7372 O   0  0  0  0  0  0
   23.2529   61.0684   53.8452 C   0  0  0  0  0  0
   22.8599   61.5494   50.8822 C   0  0  0  0  0  0
   21.6459   62.1204   50.8752 C   0  0  0  0  0  0
   20.5149   61.5654   50.0842 C   0  0  2  0  0  0
   20.4819   62.3714   48.8572 C   0  0  0  0  0  0
   19.2559   61.4304   51.0682 C   0  0  1  0  0  0
   18.9959   62.6844   51.6232 O   0  0  0  0  0  0
   17.9869   60.8034   50.4092 C   0  0  0  0  0  0
   17.9629   59.6154   49.5502 C   0  0  1  0  0  0
   18.0909   58.5484   50.4282 O   0  0  0  0  0  0
   17.7649   57.2304   50.5442 C   0  0  0  0  0  0
   16.7679   59.4734   48.7742 C   0  0  0  0  0  0
   16.7639   59.2194   47.4902 C   0  0  0  0  0  0
   15.4179   59.1014   46.7732 C   0  0  2  0  0  0
   15.3219   57.7014   46.2102 C   0  0  0  0  0  0
   15.4239   60.3554   45.8452 C   0  0  1  0  0  0
   14.0679   60.4464   44.9472 C   0  0  1  0  0  0
   12.8219   60.6204   45.9412 C   0  0  0  0  0  0
   14.2059   61.5534   43.9442 C   0  0  1  0  0  0
   15.3779   61.1734   43.0522 O   0  0  0  0  0  0
   16.3299   62.2154   42.7632 C   0  0  0  0  0  0
   12.9019   61.8234   42.9982 C   0  0  1  0  0  0
   13.1049   63.0844   42.1072 C   0  0  0  0  0  0
   12.5369   60.6034   42.2282 C   0  0  0  0  0  0
   11.2339   60.7894   41.4032 C   0  0  0  0  0  0
   10.8319   59.4944   40.7332 C   0  0  0  0  0  0
   11.4729   58.4534   40.6812 O   0  0  0  0  0  0
    9.4359   59.7064   40.0592 C   0  0  2  0  0  0
    8.3779   58.6964   40.5982 C   0  0  0  0  0  0
    9.7699   59.4684   38.5002 C   0  0  2  0  0  0
   10.7319   60.4354   38.0982 O   0  0  0  0  0  0
   11.5079   59.9684   36.9812 C   0  0  0  0  0  0
    8.3949   59.6254   37.5952 C   0  0  0  0  0  0
    7.8449   61.0504   37.7612 C   0  0  0  0  0  0
    6.6269   61.1654   38.3812 C   0  0  0  0  0  0
    5.9569   62.4754   38.5902 N   0  0  0  0  0  0
    6.4439   63.7374   38.1552 C   0  0  0  0  0  0
    4.7409   62.3404   39.3012 C   0  0  0  0  0  0
    4.0789   63.3274   39.6122 O   0  0  0  0  0  0
   23.1538   68.9761   47.9678 H   0  0  0  0  0  0
   23.2395   64.7562   48.8367 H   0  0  0  0  0  0
   23.2170   64.5157   51.0392 H   0  0  0  0  0  0
   20.7784   66.8531   48.8511 H   0  0  0  0  0  0
   21.3291   68.1691   47.7596 H   0  0  0  0  0  0
   21.5187   65.3086   47.4171 H   0  0  0  0  0  0
   22.9617   64.9586   44.3292 H   0  0  0  0  0  0
   21.2268   64.7435   44.7421 H   0  0  0  0  0  0
   22.4974   64.1384   45.8584 H   0  0  0  0  0  0
   19.8793   67.6316   46.0227 H   0  0  0  0  0  0
   19.7051   65.9188   45.5102 H   0  0  0  0  0  0
   17.3296   67.1081   48.7177 H   0  0  0  0  0  0
   17.8981   68.3956   47.6016 H   0  0  0  0  0  0
   18.9747   67.8028   48.9116 H   0  0  0  0  0  0
   18.8037   64.4711   46.4170 H   0  0  0  0  0  0
   16.7165   65.3729   48.5204 H   0  0  0  0  0  0
   15.4601   63.2975   48.2521 H   0  0  0  0  0  0
   25.4756   65.5616   48.0518 H   0  0  0  0  0  0
   25.2026   64.8222   51.1086 H   0  0  0  0  0  0
   27.5135   63.9189   50.8511 H   0  0  0  0  0  0
   27.4785   65.6724   50.4629 H   0  0  0  0  0  0
   27.5449   64.4605   49.1387 H   0  0  0  0  0  0
   24.0177   63.1610   49.4857 H   0  0  0  0  0  0
   25.9075   62.0519   46.5935 H   0  0  0  0  0  0
   24.2906   62.6778   47.0633 H   0  0  0  0  0  0
   24.9212   61.1698   47.8083 H   0  0  0  0  0  0
   25.3129   61.2656   50.3166 H   0  0  0  0  0  0
   25.9752   62.5091   51.4308 H   0  0  0  0  0  0
   23.6250   63.0690   52.0626 H   0  0  0  0  0  0
   23.6272   60.3532   54.5925 H   0  0  0  0  0  0
   22.2978   60.7062   53.4371 H   0  0  0  0  0  0
   23.1005   62.0489   54.3201 H   0  0  0  0  0  0
   23.0417   60.6364   50.2962 H   0  0  0  0  0  0
   21.4620   63.0290   51.4674 H   0  0  0  0  0  0
   20.6459   60.5683   49.6385 H   0  0  0  0  0  0
   19.6640   62.0212   48.2103 H   0  0  0  0  0  0
   21.4394   62.2692   48.3255 H   0  0  0  0  0  0
   20.3176   63.4277   49.1167 H   0  0  0  0  0  0
   19.4750   60.8120   51.9511 H   0  0  0  0  0  0
   18.1644   62.8104   52.3322 H   0  0  0  0  0  0
   17.2764   60.5040   51.1937 H   0  0  0  0  0  0
   17.5129   61.5442   49.7485 H   0  0  0  0  0  0
   18.7718   59.6317   48.8049 H   0  0  0  0  0  0
   18.1335   56.8449   51.5062 H   0  0  0  0  0  0
   18.2265   56.6648   49.7214 H   0  0  0  0  0  0
   16.6717   57.1178   50.4986 H   0  0  0  0  0  0
   15.8170   59.5896   49.3148 H   0  0  0  0  0  0
   17.7147   59.0959   46.9510 H   0  0  0  0  0  0
   14.4816   59.1223   47.3502 H   0  0  0  0  0  0
   14.3622   57.5821   45.6860 H   0  0  0  0  0  0
   15.3850   56.9713   47.0305 H   0  0  0  0  0  0
   16.1487   57.5325   45.5045 H   0  0  0  0  0  0
   16.3052   60.3200   45.1878 H   0  0  0  0  0  0
   13.8868   59.5772   44.2978 H   0  0  0  0  0  0
   11.8925   60.6843   45.3563 H   0  0  0  0  0  0
   12.9485   61.5408   46.5302 H   0  0  0  0  0  0
   12.7700   59.7556   46.6189 H   0  0  0  0  0  0
   14.4039   62.4457   44.5564 H   0  0  0  0  0  0
   17.1235   61.8172   42.1138 H   0  0  0  0  0  0
   16.7725   62.5785   43.7025 H   0  0  0  0  0  0
   15.8206   63.0461   42.2526 H   0  0  0  0  0  0
   11.9828   62.0077   43.5737 H   0  0  0  0  0  0
   12.2125   63.2399   41.4831 H   0  0  0  0  0  0
   13.9834   62.9394   41.4612 H   0  0  0  0  0  0
   13.2622   63.9646   42.7479 H   0  0  0  0  0  0
   13.3485   60.3550   41.5285 H   0  0  0  0  0  0
   12.3817   59.7644   42.9224 H   0  0  0  0  0  0
   10.4203   61.1106   42.0702 H   0  0  0  0  0  0
   11.3962   61.5535   40.6287 H   0  0  0  0  0  0
    8.9863   60.6833   40.2907 H   0  0  0  0  0  0
    7.4129   58.8767   40.1020 H   0  0  0  0  0  0
    8.2628   58.8306   41.6839 H   0  0  0  0  0  0
    8.7116   57.6694   40.3890 H   0  0  0  0  0  0
   10.2921   58.5164   38.3240 H   0  0  0  0  0  0
   12.2404   60.7380   36.6963 H   0  0  0  0  0  0
   10.8406   59.7646   36.1308 H   0  0  0  0  0  0
   12.0363   59.0454   37.2621 H   0  0  0  0  0  0
    8.6295   59.4400   36.5366 H   0  0  0  0  0  0
    7.6453   58.8969   37.9377 H   0  0  0  0  0  0
    8.3725   61.9510   37.4138 H   0  0  0  0  0  0
    6.1082   60.2665   38.7456 H   0  0  0  0  0  0
    5.7364   64.5256   38.4520 H   0  0  0  0  0  0
    6.5489   63.7323   37.0602 H   0  0  0  0  0  0
    7.4235   63.9313   38.6166 H   0  0  0  0  0  0
    4.3905   61.3344   39.5754 H   0  0  0  0  0  0
  1  2  2  0  0  0
  2  3  1  0  0  0
  2 20  1  0  0  0
  3  4  2  0  0  0
  3 69  1  0  0  0
  4  5  1  0  0  0
  4  7  1  0  0  0
  5  6  1  0  0  0
  5 21  1  0  0  0
  5 70  1  0  0  0
  6 71  1  0  0  0
  7  8  1  0  0  0
  7 72  1  0  0  0
  7 73  1  0  0  0
  8  9  1  0  0  0
  8 11  1  0  0  0
  8 74  1  0  0  0
  9 10  1  0  0  0
 10 75  1  0  0  0
 10 76  1  0  0  0
 10 77  1  0  0  0
 11 12  1  0  0  0
 11 78  1  0  0  0
 11 79  1  0  0  0
 12 13  1  0  0  0
 12 14  2  0  0  0
 13 80  1  0  0  0
 13 81  1  0  0  0
 13 82  1  0  0  0
 14 15  1  0  0  0
 14 83  1  0  0  0
 15 16  2  0  0  0
 15 84  1  0  0  0
 16 17  1  0  0  0
 16 85  1  0  0  0
 17 18  2  0  0  0
 17 19  1  0  0  0
 19 45  1  0  0  0
 20 21  1  0  0  0
 21 22  1  0  0  0
 21 86  1  0  0  0
 22 23  1  0  0  0
 22 24  1  0  0  0
 22 87  1  0  0  0
 23 88  1  0  0  0
 23 89  1  0  0  0
 23 90  1  0  0  0
 24 25  1  0  0  0
 24 27  1  0  0  0
 24 91  1  0  0  0
 25 26  1  0  0  0
 26 92  1  0  0  0
 26 93  1  0  0  0
 26 94  1  0  0  0
 27 28  1  0  0  0
 27 95  1  0  0  0
 27 96  1  0  0  0
 28 29  1  0  0  0
 28 31  1  0  0  0
 28 97  1  0  0  0
 29 30  1  0  0  0
 30 98  1  0  0  0
 30 99  1  0  0  0
 30100  1  0  0  0
 31 32  2  0  0  0
 31101  1  0  0  0
 32 33  1  0  0  0
 32102  1  0  0  0
 33 34  1  0  0  0
 33 35  1  0  0  0
 33103  1  0  0  0
 34104  1  0  0  0
 34105  1  0  0  0
 34106  1  0  0  0
 35 36  1  0  0  0
 35 37  1  0  0  0
 35107  1  0  0  0
 36108  1  0  0  0
 37 38  1  0  0  0
 37109  1  0  0  0
 37110  1  0  0  0
 38 39  1  0  0  0
 38 41  1  0  0  0
 38111  1  0  0  0
 39 40  1  0  0  0
 40112  1  0  0  0
 40113  1  0  0  0
 40114  1  0  0  0
 41 42  2  0  0  0
 41115  1  0  0  0
 42 43  1  0  0  0
 42116  1  0  0  0
 43 44  1  0  0  0
 43 45  1  0  0  0
 43117  1  0  0  0
 44118  1  0  0  0
 44119  1  0  0  0
 44120  1  0  0  0
 45 46  1  0  0  0
 45121  1  0  0  0
 46 47  1  0  0  0
 46 48  1  0  0  0
 46122  1  0  0  0
 47123  1  0  0  0
 47124  1  0  0  0
 47125  1  0  0  0
 48 49  1  0  0  0
 48 51  1  0  0  0
 48126  1  0  0  0
 49 50  1  0  0  0
 50127  1  0  0  0
 50128  1  0  0  0
 50129  1  0  0  0
 51 52  1  0  0  0
 51 53  1  0  0  0
 51130  1  0  0  0
 52131  1  0  0  0
 52132  1  0  0  0
 52133  1  0  0  0
 53 54  1  0  0  0
 53134  1  0  0  0
 53135  1  0  0  0
 54 55  1  0  0  0
 54136  1  0  0  0
 54137  1  0  0  0
 55 56  2  0  0  0
 55 57  1  0  0  0
 57 58  1  0  0  0
 57 59  1  0  0  0
 57138  1  0  0  0
 58139  1  0  0  0
 58140  1  0  0  0
 58141  1  0  0  0
 59 60  1  0  0  0
 59 62  1  0  0  0
 59142  1  0  0  0
 60 61  1  0  0  0
 61143  1  0  0  0
 61144  1  0  0  0
 61145  1  0  0  0
 62 63  1  0  0  0
 62146  1  0  0  0
 62147  1  0  0  0
 63 64  2  0  0  0
 63148  1  0  0  0
 64 65  1  0  0  0
 64149  1  0  0  0
 65 66  1  0  0  0
 65 67  1  0  0  0
 66150  1  0  0  0
 66151  1  0  0  0
 66152  1  0  0  0
 67 68  2  0  0  0
 67153  1  0  0  0
M  END
