3ABA
                    3D
 Structure written by MMmdl.
102102  0  0  1  0            999 V2000
   15.0361   58.8637   43.5980 C   0  0  0  0  0  0
   14.1651   59.7447   43.4630 O   0  0  0  0  0  0
   15.0531   57.9457   44.8270 C   0  0  1  0  0  0
   15.1241   58.7467   46.1570 C   0  0  2  0  0  0
   16.3371   59.7577   46.1960 C   0  0  0  0  0  0
   16.3901   60.5027   47.5690 C   0  0  2  0  0  0
   17.6031   61.4577   47.5770 C   0  0  0  0  0  0
   17.6441   62.2347   48.9230 C   0  0  2  0  0  0
   18.4691   63.5387   48.6870 C   0  0  0  0  0  0
   18.4861   64.3867   49.9890 C   0  0  2  0  0  0
   19.3731   65.6607   49.7540 C   0  0  0  0  0  0
   19.2291   66.6347   51.0190 C   0  0  2  0  0  0
   20.0721   67.9217   50.8390 C   0  0  0  0  0  0
   19.3161   68.9807   50.0210 C   0  0  2  0  0  0
   20.2601   70.1827   49.6590 C   0  0  0  0  0  0
   21.5371   69.9267   48.7670 C   0  0  1  0  0  0
   21.0241   69.3137   47.4480 C   0  0  0  0  0  0
   21.0001   67.9217   47.3070 C   0  0  0  0  0  0
   20.3501   67.2817   46.2170 C   0  0  0  0  0  0
   20.3551   65.9007   46.0530 C   0  0  0  0  0  0
   13.8041   57.0607   44.7470 C   0  0  0  0  0  0
   19.7301   65.2207   44.9870 C   0  0  0  0  0  0
   19.7731   63.7957   44.8880 C   0  0  0  0  0  0
   19.0541   63.1777   43.8410 C   0  0  0  0  0  0
   19.0581   61.8307   43.5430 C   0  0  0  0  0  0
   18.3261   61.4177   42.3850 C   0  0  0  0  0  0
   18.1471   60.0477   42.1220 C   0  0  0  0  0  0
   17.4161   59.5877   40.9660 C   0  0  0  0  0  0
   15.9331   59.5927   41.4030 C   0  0  1  0  0  0
   15.0091   58.8927   40.4000 C   0  0  0  0  0  0
   20.3981   70.2997   46.3820 C   0  0  0  0  0  0
   13.6211   56.2997   43.3690 C   0  0  0  0  0  0
   15.9531   58.6817   42.5900 O   0  0  0  0  0  0
   12.3731   55.4527   43.2740 C   0  0  0  0  0  0
   12.3781   54.8057   41.8880 C   0  0  0  0  0  0
   11.1521   53.9277   41.5000 C   0  0  0  0  0  0
   10.0781   54.7957   40.7730 C   0  0  0  0  0  0
   15.2731   57.7487   47.2030 O   0  0  0  0  0  0
   16.6161   59.4987   48.6350 O   0  0  0  0  0  0
   18.3351   61.3777   49.9070 O   0  0  0  0  0  0
   19.0971   63.5647   50.9850 O   0  0  0  0  0  0
   19.7061   65.9527   52.2150 O   0  0  0  0  0  0
   18.1051   69.3677   50.7040 O   0  0  0  0  0  0
   22.0651   71.2977   48.6320 O   0  0  0  0  0  0
   15.9550   57.3162   44.8111 H   0  0  0  0  0  0
   14.1973   59.3124   46.3329 H   0  0  0  0  0  0
   17.2784   59.2067   46.0536 H   0  0  0  0  0  0
   16.2217   60.5001   45.3925 H   0  0  0  0  0  0
   15.4519   61.0402   47.7714 H   0  0  0  0  0  0
   18.5291   60.8752   47.4622 H   0  0  0  0  0  0
   17.5133   62.1715   46.7448 H   0  0  0  0  0  0
   16.6459   62.4580   49.3277 H   0  0  0  0  0  0
   19.5001   63.2750   48.4088 H   0  0  0  0  0  0
   18.0085   64.1224   47.8763 H   0  0  0  0  0  0
   17.4840   64.6547   50.3550 H   0  0  0  0  0  0
   20.4241   65.3588   49.6351 H   0  0  0  0  0  0
   19.0356   66.1799   48.8448 H   0  0  0  0  0  0
   18.1767   66.9000   51.1980 H   0  0  0  0  0  0
   20.3074   68.3469   51.8258 H   0  0  0  0  0  0
   21.0066   67.6773   50.3128 H   0  0  0  0  0  0
   18.9171   68.5482   49.0916 H   0  0  0  0  0  0
   19.6900   70.9424   49.1041 H   0  0  0  0  0  0
   20.6596   70.6264   50.5829 H   0  0  0  0  0  0
   22.3472   69.2758   49.1277 H   0  0  0  0  0  0
   21.4953   67.2846   48.0545 H   0  0  0  0  0  0
   19.8299   67.9203   45.4878 H   0  0  0  0  0  0
   20.8716   65.2618   46.7845 H   0  0  0  0  0  0
   13.8488   56.2916   45.5322 H   0  0  0  0  0  0
   12.9062   57.6797   44.8908 H   0  0  0  0  0  0
   19.2020   65.8095   44.2225 H   0  0  0  0  0  0
   20.3551   63.2111   45.6156 H   0  0  0  0  0  0
   18.4521   63.8728   43.2372 H   0  0  0  0  0  0
   19.6084   61.1270   44.1848 H   0  0  0  0  0  0
   17.9038   62.1688   41.7012 H   0  0  0  0  0  0
   18.5693   59.2966   42.8058 H   0  0  0  0  0  0
   17.5936   60.2724   40.1236 H   0  0  0  0  0  0
   17.7563   58.5773   40.6952 H   0  0  0  0  0  0
   15.5660   60.6172   41.5634 H   0  0  0  0  0  0
   13.9730   58.9306   40.7676 H   0  0  0  0  0  0
   15.3195   57.8436   40.2858 H   0  0  0  0  0  0
   15.0717   59.4016   39.4268 H   0  0  0  0  0  0
   20.0773   69.7286   45.4983 H   0  0  0  0  0  0
   21.1514   71.0439   46.0840 H   0  0  0  0  0  0
   19.5301   70.8125   46.8221 H   0  0  0  0  0  0
   13.5705   57.0319   42.5497 H   0  0  0  0  0  0
   14.4750   55.6256   43.2061 H   0  0  0  0  0  0
   12.3900   54.6853   44.0619 H   0  0  0  0  0  0
   11.4863   56.0907   43.4025 H   0  0  0  0  0  0
   12.4298   55.5893   41.1177 H   0  0  0  0  0  0
   13.2511   54.1429   41.7959 H   0  0  0  0  0  0
   11.4777   53.1197   40.8283 H   0  0  0  0  0  0
   10.7099   53.4933   42.4087 H   0  0  0  0  0  0
    9.2178   54.1652   40.5041 H   0  0  0  0  0  0
   10.5136   55.2300   39.8610 H   0  0  0  0  0  0
    9.7459   55.6037   41.4414 H   0  0  0  0  0  0
   15.3476   58.0614   48.2550 H   0  0  0  0  0  0
   16.6859   59.8179   49.6853 H   0  0  0  0  0  0
   18.4790   61.7308   50.9388 H   0  0  0  0  0  0
   19.2267   63.9456   52.0088 H   0  0  0  0  0  0
   19.6849   66.4673   53.1870 H   0  0  0  0  0  0
   17.4386   70.1206   50.2579 H   0  0  0  0  0  0
   22.9808   71.4796   48.0502 H   0  0  0  0  0  0
  1  2  2  0  0  0
  1  3  1  0  0  0
  1 33  1  0  0  0
  3  4  1  0  0  0
  3 21  1  0  0  0
  3 45  1  0  0  0
  4  5  1  0  0  0
  4 38  1  0  0  0
  4 46  1  0  0  0
  5  6  1  0  0  0
  5 47  1  0  0  0
  5 48  1  0  0  0
  6  7  1  0  0  0
  6 39  1  0  0  0
  6 49  1  0  0  0
  7  8  1  0  0  0
  7 50  1  0  0  0
  7 51  1  0  0  0
  8  9  1  0  0  0
  8 40  1  0  0  0
  8 52  1  0  0  0
  9 10  1  0  0  0
  9 53  1  0  0  0
  9 54  1  0  0  0
 10 11  1  0  0  0
 10 41  1  0  0  0
 10 55  1  0  0  0
 11 12  1  0  0  0
 11 56  1  0  0  0
 11 57  1  0  0  0
 12 13  1  0  0  0
 12 42  1  0  0  0
 12 58  1  0  0  0
 13 14  1  0  0  0
 13 59  1  0  0  0
 13 60  1  0  0  0
 14 15  1  0  0  0
 14 43  1  0  0  0
 14 61  1  0  0  0
 15 16  1  0  0  0
 15 62  1  0  0  0
 15 63  1  0  0  0
 16 17  1  0  0  0
 16 44  1  0  0  0
 16 64  1  0  0  0
 17 18  2  0  0  0
 17 31  1  0  0  0
 18 19  1  0  0  0
 18 65  1  0  0  0
 19 20  2  0  0  0
 19 66  1  0  0  0
 20 22  1  0  0  0
 20 67  1  0  0  0
 21 32  1  0  0  0
 21 68  1  0  0  0
 21 69  1  0  0  0
 22 23  2  0  0  0
 22 70  1  0  0  0
 23 24  1  0  0  0
 23 71  1  0  0  0
 24 25  2  0  0  0
 24 72  1  0  0  0
 25 26  1  0  0  0
 25 73  1  0  0  0
 26 27  2  0  0  0
 26 74  1  0  0  0
 27 28  1  0  0  0
 27 75  1  0  0  0
 28 29  1  0  0  0
 28 76  1  0  0  0
 28 77  1  0  0  0
 29 30  1  0  0  0
 29 33  1  0  0  0
 29 78  1  0  0  0
 30 79  1  0  0  0
 30 80  1  0  0  0
 30 81  1  0  0  0
 31 82  1  0  0  0
 31 83  1  0  0  0
 31 84  1  0  0  0
 32 34  1  0  0  0
 32 85  1  0  0  0
 32 86  1  0  0  0
 34 35  1  0  0  0
 34 87  1  0  0  0
 34 88  1  0  0  0
 35 36  1  0  0  0
 35 89  1  0  0  0
 35 90  1  0  0  0
 36 37  1  0  0  0
 36 91  1  0  0  0
 36 92  1  0  0  0
 37 93  1  0  0  0
 37 94  1  0  0  0
 37 95  1  0  0  0
 38 96  1  0  0  0
 39 97  1  0  0  0
 40 98  1  0  0  0
 41 99  1  0  0  0
 42100  1  0  0  0
 43101  1  0  0  0
 44102  1  0  0  0
M  END
