3DV1
                    3D
 Structure written by MMmdl.
 76 76  0  0  1  0            999 V2000
   30.2780    6.1680   16.1530 N   0  0  0  0  0  0
   31.3230    6.4560   15.1800 C   0  0  1  0  0  0
   32.3640    7.3660   15.9020 C   0  0  0  0  0  0
   31.7050    8.7570   16.1610 C   0  0  1  0  0  0
   32.5680    9.5910   17.1470 C   0  0  0  0  0  0
   32.3670    9.0960   18.5910 C   0  0  0  0  0  0
   31.2010    9.8610   19.2110 C   0  0  0  0  0  0
   30.9680    9.4240   20.6960 C   0  0  0  0  0  0
   29.8610    8.3500   20.7720 C   0  0  0  0  0  0
   28.6230    8.9690   20.1150 C   0  0  0  0  0  0
   27.4380    8.0290   20.1090 C   0  0  0  0  0  0
   27.5710    6.8730   19.1500 C   0  0  0  0  0  0
   27.9460    7.1350   17.8630 N   0  0  0  0  0  0
   28.0080    6.0150   16.9000 C   0  0  2  0  0  0
   28.9810    6.3180   15.8050 C   0  0  0  0  0  0
   28.6100    6.6670   14.6830 O   0  0  0  0  0  0
   26.5760    5.8380   16.3420 C   0  0  0  0  0  0
   27.3280    5.7550   19.5810 O   0  0  0  0  0  0
   31.6520    9.5150   14.8030 C   0  0  0  0  0  0
   31.9740    5.1550   14.6640 C   0  0  1  0  0  0
   32.6100    4.4580   15.7470 O   0  0  0  0  0  0
   30.9060    4.2010   14.0630 C   0  0  0  0  0  0
   31.6250    3.2060   13.1350 C   0  0  1  0  0  0
   30.8100    1.8980   13.0480 C   0  0  0  0  0  0
   31.6660    3.7310   11.7080 C   0  0  0  0  0  0
   30.7560    4.4310   11.2930 O   0  0  0  0  0  0
   32.7300    3.3850   10.9810 N   0  0  0  0  0  0
   32.8420    3.8090    9.5900 C   0  0  0  0  0  0
   34.2010    3.2980    9.0660 C   0  0  0  0  0  0
   34.3310    3.4770    7.5290 C   0  0  0  0  0  0
   34.4690    4.9720    7.1620 C   0  0  0  0  0  0
   30.5466    5.8304   17.1649 H   0  0  0  0  0  0
   30.8506    6.9518   14.3192 H   0  0  0  0  0  0
   32.6555    6.9037   16.8566 H   0  0  0  0  0  0
   33.2530    7.4831   15.2648 H   0  0  0  0  0  0
   30.7022    8.6198   16.5918 H   0  0  0  0  0  0
   33.6303    9.4908   16.8795 H   0  0  0  0  0  0
   32.2732   10.6491   17.0877 H   0  0  0  0  0  0
   32.1450    8.0187   18.5817 H   0  0  0  0  0  0
   33.2838    9.2764   19.1715 H   0  0  0  0  0  0
   31.4179   10.9392   19.1910 H   0  0  0  0  0  0
   30.2843    9.6607   18.6369 H   0  0  0  0  0  0
   31.9001    9.0082   21.1064 H   0  0  0  0  0  0
   30.6625   10.2970   21.2915 H   0  0  0  0  0  0
   30.1872    7.4484   20.2328 H   0  0  0  0  0  0
   29.6668    8.0974   21.8248 H   0  0  0  0  0  0
   28.3318    9.8767   20.6638 H   0  0  0  0  0  0
   28.8533    9.2295   19.0714 H   0  0  0  0  0  0
   27.3043    7.6012   21.1135 H   0  0  0  0  0  0
   26.5319    8.5831   19.8228 H   0  0  0  0  0  0
   28.1992    8.1548   17.5376 H   0  0  0  0  0  0
   28.3859    5.1113   17.4005 H   0  0  0  0  0  0
   26.5650    5.0119   15.6157 H   0  0  0  0  0  0
   26.2585    6.7669   15.8456 H   0  0  0  0  0  0
   25.8863    5.6094   17.1679 H   0  0  0  0  0  0
   31.1912   10.5026   14.9521 H   0  0  0  0  0  0
   31.0543    8.9364   14.0832 H   0  0  0  0  0  0
   32.6730    9.6417   14.4138 H   0  0  0  0  0  0
   32.7610    5.4093   13.9388 H   0  0  0  0  0  0
   33.1270    3.5053   15.5597 H   0  0  0  0  0  0
   30.3967    3.6623   14.8757 H   0  0  0  0  0  0
   30.1696    4.7871   13.4937 H   0  0  0  0  0  0
   32.6401    3.0619   13.5334 H   0  0  0  0  0  0
   31.3255    1.1882   12.3843 H   0  0  0  0  0  0
   29.8095    2.1155   12.6460 H   0  0  0  0  0  0
   30.7142    1.4582   14.0517 H   0  0  0  0  0  0
   33.5253    2.7766   11.4363 H   0  0  0  0  0  0
   32.0151    3.3770    9.0073 H   0  0  0  0  0  0
   32.7942    4.9066    9.5362 H   0  0  0  0  0  0
   35.0146    3.8591    9.5489 H   0  0  0  0  0  0
   34.3050    2.2280    9.2989 H   0  0  0  0  0  0
   35.2218    2.9398    7.1714 H   0  0  0  0  0  0
   33.4355    3.0713    7.0355 H   0  0  0  0  0  0
   34.5595    5.0748    6.0706 H   0  0  0  0  0  0
   35.3660    5.3868    7.6450 H   0  0  0  0  0  0
   33.5797    5.5184    7.5092 H   0  0  0  0  0  0
  1  2  1  0  0  0
  1 15  1  0  0  0
  1 32  1  0  0  0
  2  3  1  0  0  0
  2 20  1  0  0  0
  2 33  1  0  0  0
  3  4  1  0  0  0
  3 34  1  0  0  0
  3 35  1  0  0  0
  4  5  1  0  0  0
  4 19  1  0  0  0
  4 36  1  0  0  0
  5  6  1  0  0  0
  5 37  1  0  0  0
  5 38  1  0  0  0
  6  7  1  0  0  0
  6 39  1  0  0  0
  6 40  1  0  0  0
  7  8  1  0  0  0
  7 41  1  0  0  0
  7 42  1  0  0  0
  8  9  1  0  0  0
  8 43  1  0  0  0
  8 44  1  0  0  0
  9 10  1  0  0  0
  9 45  1  0  0  0
  9 46  1  0  0  0
 10 11  1  0  0  0
 10 47  1  0  0  0
 10 48  1  0  0  0
 11 12  1  0  0  0
 11 49  1  0  0  0
 11 50  1  0  0  0
 12 13  1  0  0  0
 12 18  2  0  0  0
 13 14  1  0  0  0
 13 51  1  0  0  0
 14 15  1  0  0  0
 14 17  1  0  0  0
 14 52  1  0  0  0
 15 16  2  0  0  0
 17 53  1  0  0  0
 17 54  1  0  0  0
 17 55  1  0  0  0
 19 56  1  0  0  0
 19 57  1  0  0  0
 19 58  1  0  0  0
 20 21  1  0  0  0
 20 22  1  0  0  0
 20 59  1  0  0  0
 21 60  1  0  0  0
 22 23  1  0  0  0
 22 61  1  0  0  0
 22 62  1  0  0  0
 23 24  1  0  0  0
 23 25  1  0  0  0
 23 63  1  0  0  0
 24 64  1  0  0  0
 24 65  1  0  0  0
 24 66  1  0  0  0
 25 26  2  0  0  0
 25 27  1  0  0  0
 27 28  1  0  0  0
 27 67  1  0  0  0
 28 29  1  0  0  0
 28 68  1  0  0  0
 28 69  1  0  0  0
 29 30  1  0  0  0
 29 70  1  0  0  0
 29 71  1  0  0  0
 30 31  1  0  0  0
 30 72  1  0  0  0
 30 73  1  0  0  0
 31 74  1  0  0  0
 31 75  1  0  0  0
 31 76  1  0  0  0
M  END
