3BXR
                    3D
 Structure written by MMmdl.
100103  0  0  1  0            999 V2000
   10.2940   -3.0930   15.2920 C   0  0  0  0  0  0
    8.9040   -3.7210   15.1790 C   0  0  0  0  0  0
    8.6050   -4.6750   16.3390 C   0  0  2  0  0  0
    9.5620   -5.8700   16.3040 C   0  0  0  0  0  0
    7.1500   -5.1480   16.2700 C   0  0  2  0  0  0
    6.1900   -4.0370   16.3630 N   0  0  0  0  0  0
    5.6430   -3.4700   15.2910 C   0  0  0  0  0  0
    5.9580   -3.7460   14.1340 O   0  0  0  0  0  0
    6.8190   -6.1120   17.4110 C   0  0  0  0  0  0
    6.8870   -5.7440   18.5840 O   0  0  0  0  0  0
    6.4290   -7.3240   17.0250 N   0  0  0  0  0  0
    6.0600   -8.3670   17.9940 C   0  0  0  0  0  0
    5.4020   -9.5500   17.2770 C   0  0  0  0  0  0
    4.2230   -9.1190   16.4010 C   0  0  0  0  0  0
    3.2680   -8.3530   17.1550 O   0  0  0  0  0  0
    3.1960   -7.0560   16.7450 C   0  0  0  0  0  0
    3.1980   -6.7210   15.3930 C   0  0  0  0  0  0
    3.1440   -5.3860   15.0010 C   0  0  0  0  0  0
    3.1210   -6.0450   17.6990 C   0  0  0  0  0  0
    3.0670   -4.7080   17.3080 C   0  0  0  0  0  0
    3.0900   -4.3770   15.9570 C   0  0  0  0  0  0
    3.1930   -2.9170   15.4980 C   0  0  0  0  0  0
    4.6210   -2.3650   15.5740 C   0  0  2  0  0  0
    4.8310   -1.3470   14.5360 N   0  0  0  0  0  0
    5.9090   -0.5670   14.5650 C   0  0  0  0  0  0
    6.7300   -0.5860   15.4810 O   0  0  0  0  0  0
    6.0660    0.3790   13.3720 C   0  0  2  0  0  0
    7.2790    1.2980   13.5340 C   0  0  0  0  0  0
    7.5170    2.0930   12.2480 C   0  0  0  0  0  0
    7.3550    3.4740   12.2580 C   0  0  0  0  0  0
    7.4850    4.1950   11.0750 C   0  0  0  0  0  0
    7.8250    1.4330   11.0610 C   0  0  0  0  0  0
    7.9540    2.1570    9.8780 C   0  0  0  0  0  0
    7.7760    3.5390    9.8830 C   0  0  0  0  0  0
    7.8330    4.2730    8.7370 O   0  0  0  0  0  0
    7.0790    3.7040    7.6520 C   0  0  0  0  0  0
    5.6300    3.4440    8.0740 C   0  0  0  0  0  0
    5.0130    4.7090    8.6710 C   0  0  0  0  0  0
    3.5710    4.4740    9.1230 C   0  0  0  0  0  0
    3.4190    3.8540   10.5140 C   0  0  0  0  0  0
    3.5210    4.5470   11.5250 O   0  0  0  0  0  0
    3.1800    2.5430   10.5350 N   0  0  0  0  0  0
    2.9230    1.8150   11.7860 C   0  0  1  0  0  0
    1.5570    1.1360   11.6350 C   0  0  0  0  0  0
    0.4880    2.1640   11.2560 C   0  0  0  0  0  0
    1.1330    0.3800   12.8960 C   0  0  0  0  0  0
    4.0180    0.7950   12.1110 C   0  0  0  0  0  0
    4.0770   -0.2870   11.5290 O   0  0  0  0  0  0
    4.8410    1.1440   13.0990 N   0  0  0  0  0  0
   10.4619   -2.4183   14.4396 H   0  0  0  0  0  0
   11.0561   -3.8862   15.2875 H   0  0  0  0  0  0
   10.3636   -2.5229   16.2302 H   0  0  0  0  0  0
    8.1419   -2.9278   15.1835 H   0  0  0  0  0  0
    8.8344   -4.2911   14.2408 H   0  0  0  0  0  0
    8.7544   -4.1390   17.2879 H   0  0  0  0  0  0
    9.3356   -6.5457   17.1420 H   0  0  0  0  0  0
   10.5986   -5.5123   16.3911 H   0  0  0  0  0  0
    9.4392   -6.4103   15.3538 H   0  0  0  0  0  0
    7.0258   -5.6176   15.2831 H   0  0  0  0  0  0
    5.8982   -3.6432   17.3478 H   0  0  0  0  0  0
    6.3868   -7.5356   15.9464 H   0  0  0  0  0  0
    6.9626   -8.7196   18.5146 H   0  0  0  0  0  0
    5.3522   -7.9526   18.7270 H   0  0  0  0  0  0
    6.1421  -10.0448   16.6309 H   0  0  0  0  0  0
    5.0273  -10.2677   18.0216 H   0  0  0  0  0  0
    4.5911   -8.5002   15.5694 H   0  0  0  0  0  0
    3.7192  -10.0107   15.9996 H   0  0  0  0  0  0
    3.2416   -7.4980   14.6442 H   0  0  0  0  0  0
    3.1439   -5.1309   13.9516 H   0  0  0  0  0  0
    3.1043   -6.2942   18.7497 H   0  0  0  0  0  0
    3.0073   -3.9292   18.0539 H   0  0  0  0  0  0
    2.8588   -2.8367   14.4531 H   0  0  0  0  0  0
    2.5565   -2.2863   16.1360 H   0  0  0  0  0  0
    4.7602   -1.9111   16.5663 H   0  0  0  0  0  0
    4.0947   -1.2255   13.7278 H   0  0  0  0  0  0
    6.2068   -0.2357   12.4707 H   0  0  0  0  0  0
    7.0996    1.9993   14.3622 H   0  0  0  0  0  0
    8.1710    0.6927   13.7528 H   0  0  0  0  0  0
    7.1288    3.9845   13.1825 H   0  0  0  0  0  0
    7.3600    5.2677   11.0799 H   0  0  0  0  0  0
    7.9633    0.3619   11.0589 H   0  0  0  0  0  0
    8.1921    1.6472    8.9561 H   0  0  0  0  0  0
    7.0807    4.3996    6.7999 H   0  0  0  0  0  0
    7.5362    2.7508    7.3480 H   0  0  0  0  0  0
    5.0416    3.1386    7.1962 H   0  0  0  0  0  0
    5.6057    2.6436    8.8281 H   0  0  0  0  0  0
    5.6023    5.0278    9.5434 H   0  0  0  0  0  0
    5.0137    5.5089    7.9159 H   0  0  0  0  0  0
    3.0332    5.4333    9.1465 H   0  0  0  0  0  0
    3.0727    3.7914    8.4190 H   0  0  0  0  0  0
    3.1790    2.0051    9.5755 H   0  0  0  0  0  0
    2.9336    2.5515   12.6029 H   0  0  0  0  0  0
    1.6561    0.3940   10.8290 H   0  0  0  0  0  0
   -0.4844    1.6604   11.1519 H   0  0  0  0  0  0
    0.7587    2.6396   10.3018 H   0  0  0  0  0  0
    0.4216    2.9307   12.0420 H   0  0  0  0  0  0
    0.1500   -0.0853   12.7314 H   0  0  0  0  0  0
    1.0696    1.0820   13.7405 H   0  0  0  0  0  0
    1.8747   -0.4001   13.1226 H   0  0  0  0  0  0
    4.5911    2.0204   13.7150 H   0  0  0  0  0  0
  1  2  1  0  0  0
  1 50  1  0  0  0
  1 51  1  0  0  0
  1 52  1  0  0  0
  2  3  1  0  0  0
  2 53  1  0  0  0
  2 54  1  0  0  0
  3  4  1  0  0  0
  3  5  1  0  0  0
  3 55  1  0  0  0
  4 56  1  0  0  0
  4 57  1  0  0  0
  4 58  1  0  0  0
  5  6  1  0  0  0
  5  9  1  0  0  0
  5 59  1  0  0  0
  6  7  1  0  0  0
  6 60  1  0  0  0
  7  8  2  0  0  0
  7 23  1  0  0  0
  9 10  2  0  0  0
  9 11  1  0  0  0
 11 12  1  0  0  0
 11 61  1  0  0  0
 12 13  1  0  0  0
 12 62  1  0  0  0
 12 63  1  0  0  0
 13 14  1  0  0  0
 13 64  1  0  0  0
 13 65  1  0  0  0
 14 15  1  0  0  0
 14 66  1  0  0  0
 14 67  1  0  0  0
 15 16  1  0  0  0
 16 17  1  0  0  0
 16 19  2  0  0  0
 17 18  2  0  0  0
 17 68  1  0  0  0
 18 21  1  0  0  0
 18 69  1  0  0  0
 19 20  1  0  0  0
 19 70  1  0  0  0
 20 21  2  0  0  0
 20 71  1  0  0  0
 21 22  1  0  0  0
 22 23  1  0  0  0
 22 72  1  0  0  0
 22 73  1  0  0  0
 23 24  1  0  0  0
 23 74  1  0  0  0
 24 25  1  0  0  0
 24 75  1  0  0  0
 25 26  2  0  0  0
 25 27  1  0  0  0
 27 28  1  0  0  0
 27 49  1  0  0  0
 27 76  1  0  0  0
 28 29  1  0  0  0
 28 77  1  0  0  0
 28 78  1  0  0  0
 29 30  1  0  0  0
 29 32  2  0  0  0
 30 31  2  0  0  0
 30 79  1  0  0  0
 31 34  1  0  0  0
 31 80  1  0  0  0
 32 33  1  0  0  0
 32 81  1  0  0  0
 33 34  2  0  0  0
 33 82  1  0  0  0
 34 35  1  0  0  0
 35 36  1  0  0  0
 36 37  1  0  0  0
 36 83  1  0  0  0
 36 84  1  0  0  0
 37 38  1  0  0  0
 37 85  1  0  0  0
 37 86  1  0  0  0
 38 39  1  0  0  0
 38 87  1  0  0  0
 38 88  1  0  0  0
 39 40  1  0  0  0
 39 89  1  0  0  0
 39 90  1  0  0  0
 40 41  2  0  0  0
 40 42  1  0  0  0
 42 43  1  0  0  0
 42 91  1  0  0  0
 43 44  1  0  0  0
 43 47  1  0  0  0
 43 92  1  0  0  0
 44 45  1  0  0  0
 44 46  1  0  0  0
 44 93  1  0  0  0
 45 94  1  0  0  0
 45 95  1  0  0  0
 45 96  1  0  0  0
 46 97  1  0  0  0
 46 98  1  0  0  0
 46 99  1  0  0  0
 47 48  2  0  0  0
 47 49  1  0  0  0
 49100  1  0  0  0
M  END
