3KEE
                    3D
 Structure written by MMmdl.
 99105  0  0  1  0            999 V2000
   16.0134   60.1187   44.7557 C   0  0  0  0  0  0
   17.5324   60.1497   44.6587 C   0  0  2  0  0  0
   17.9144   61.5347   45.1837 C   0  0  1  0  0  0
   16.9814   61.7137   46.3937 C   0  0  0  0  0  0
   15.6424   61.1747   45.8177 C   0  0  1  0  0  0
   19.4464   61.7837   45.1317 C   0  0  0  0  0  0
   20.2584   60.9477   45.4557 O   0  0  0  0  0  0
   19.8274   62.9467   44.5987 N   0  0  0  0  0  0
   18.0894   59.8207   43.2427 C   0  0  0  0  0  0
   18.2414   60.7227   42.4187 O   0  0  0  0  0  0
   21.3934   62.7107   42.8767 C   0  0  1  0  0  0
   22.3854   63.4277   45.2307 C   0  0  0  0  0  0
   18.4294   58.5107   43.0017 N   0  0  0  0  0  0
   18.9954   58.0307   41.7137 C   0  0  0  0  0  0
   18.2264   57.4597   44.0127 C   0  0  0  0  0  0
   21.1784   63.3947   44.2517 C   0  0  2  0  0  0
   21.3414   64.2157   42.9727 C   0  0  0  0  0  0
   22.7894   62.1647   42.5457 C   0  0  0  0  0  0
   20.5084   57.7747   41.9117 C   0  0  0  0  0  0
   21.3684   58.9227   42.4687 C   0  0  0  0  0  0
   21.6864   60.0797   41.5027 C   0  0  0  0  0  0
   22.8924   60.9617   41.9207 C   0  0  0  0  0  0
   14.8014   62.1887   45.1947 O   0  0  0  0  0  0
   11.1604   65.3837   43.9467 C   0  0  0  0  0  0
   12.0284   64.6027   43.1667 C   0  0  0  0  0  0
   12.9514   63.8087   43.8667 C   0  0  0  0  0  0
   12.9954   63.7907   45.2867 C   0  0  0  0  0  0
   12.1124   64.5727   46.0347 C   0  0  0  0  0  0
   11.1874   65.3847   45.3497 C   0  0  0  0  0  0
   13.9264   62.9867   45.9427 C   0  0  0  0  0  0
   13.9494   62.9877   47.3287 C   0  0  0  0  0  0
   13.0634   63.8107   48.0157 C   0  0  0  0  0  0
   12.1584   64.5687   47.3927 N   0  0  0  0  0  0
   13.0484   63.7317   49.4917 C   0  0  0  0  0  0
   12.0984   64.9417   50.3757 S   0  0  0  0  0  0
   12.4144   64.2057   51.9477 C   0  0  0  0  0  0
   13.2224   63.1037   51.6457 C   0  0  0  0  0  0
   13.5314   62.8297   50.3347 N   0  0  0  0  0  0
   13.5284   62.3847   52.8997 C   0  0  0  0  0  0
   14.9164   61.7917   52.9277 C   0  0  0  0  0  0
   12.5094   61.2487   52.9737 C   0  0  0  0  0  0
   10.2244   66.1957   43.3077 O   0  0  0  0  0  0
   10.2084   66.2227   41.8877 C   0  0  0  0  0  0
   10.2074   66.2317   46.1467 C   0  0  0  0  0  0
   22.1414   63.4087   46.5297 N   0  0  0  0  0  0
   23.5424   63.5037   44.8567 O   0  0  0  0  0  0
   23.2784   63.4517   47.5557 S   0  0  0  0  0  0
   22.5474   63.2307   49.0607 C   0  0  0  0  0  0
   24.2734   62.4277   47.3457 O   0  0  0  0  0  0
   23.8254   64.7637   47.4447 O   0  0  0  0  0  0
   22.2184   64.5377   49.7657 C   0  0  0  0  0  0
   23.4354   63.7417   50.1957 C   0  0  0  0  0  0
   15.5783   60.3660   43.7761 H   0  0  0  0  0  0
   15.6858   59.1134   45.0591 H   0  0  0  0  0  0
   17.9816   59.3559   45.2736 H   0  0  0  0  0  0
   17.7100   62.4362   44.5874 H   0  0  0  0  0  0
   17.3632   61.1256   47.2412 H   0  0  0  0  0  0
   16.9430   62.7769   46.6729 H   0  0  0  0  0  0
   15.0026   60.8087   46.6342 H   0  0  0  0  0  0
   18.9664   63.6081   44.4223 H   0  0  0  0  0  0
   20.8526   61.9237   42.3306 H   0  0  0  0  0  0
   18.4915   57.0992   41.4162 H   0  0  0  0  0  0
   18.8410   58.7950   40.9378 H   0  0  0  0  0  0
   18.5658   56.4937   43.6106 H   0  0  0  0  0  0
   17.1579   57.3963   44.2662 H   0  0  0  0  0  0
   18.8039   57.7039   44.9165 H   0  0  0  0  0  0
   22.2902   64.6391   42.6115 H   0  0  0  0  0  0
   20.5128   64.5940   42.3560 H   0  0  0  0  0  0
   23.6972   62.7291   42.8054 H   0  0  0  0  0  0
   20.6503   56.9430   42.6175 H   0  0  0  0  0  0
   20.9664   57.5175   40.9452 H   0  0  0  0  0  0
   20.8556   59.3820   43.3266 H   0  0  0  0  0  0
   22.3425   58.5274   42.7925 H   0  0  0  0  0  0
   21.9203   59.6729   40.5078 H   0  0  0  0  0  0
   20.8150   60.7470   41.4304 H   0  0  0  0  0  0
   23.8836   60.5513   41.6775 H   0  0  0  0  0  0
   11.9626   64.6348   42.0892 H   0  0  0  0  0  0
   13.6521   63.1906   43.3251 H   0  0  0  0  0  0
   14.6477   62.3561   47.8576 H   0  0  0  0  0  0
   12.1419   64.4108   52.9724 H   0  0  0  0  0  0
   13.4832   63.1092   53.7261 H   0  0  0  0  0  0
   15.0747   61.2741   53.8853 H   0  0  0  0  0  0
   15.6604   62.5944   52.8173 H   0  0  0  0  0  0
   15.0255   61.0745   52.1008 H   0  0  0  0  0  0
   12.6775   60.6645   53.8904 H   0  0  0  0  0  0
   12.6243   60.5953   52.0962 H   0  0  0  0  0  0
   11.4927   61.6684   52.9877 H   0  0  0  0  0  0
    9.4185   66.9061   41.5428 H   0  0  0  0  0  0
   10.0111   65.2108   41.5039 H   0  0  0  0  0  0
   11.1832   66.5720   41.5166 H   0  0  0  0  0  0
   10.3927   66.0925   47.2220 H   0  0  0  0  0  0
    9.1786   65.9234   45.9089 H   0  0  0  0  0  0
   10.3422   67.2917   45.8855 H   0  0  0  0  0  0
   21.9649   62.3099   48.9094 H   0  0  0  0  0  0
   22.2271   65.3604   49.0356 H   0  0  0  0  0  0
   21.2215   64.4657   50.2251 H   0  0  0  0  0  0
   23.4521   63.0019   51.0096 H   0  0  0  0  0  0
   24.4576   63.8967   49.8201 H   0  0  0  0  0  0
   21.1894   63.3650   46.8641 H   0  0  0  0  0  0
  1  2  1  0  0  0
  1  5  1  0  0  0
  1 53  1  0  0  0
  1 54  1  0  0  0
  2  3  1  0  0  0
  2  9  1  0  0  0
  2 55  1  0  0  0
  3  4  1  0  0  0
  3  6  1  0  0  0
  3 56  1  0  0  0
  4  5  1  0  0  0
  4 57  1  0  0  0
  4 58  1  0  0  0
  5 23  1  0  0  0
  5 59  1  0  0  0
  6  7  2  0  0  0
  6  8  1  0  0  0
  8 16  1  0  0  0
  8 60  1  0  0  0
  9 10  2  0  0  0
  9 13  1  0  0  0
 11 16  1  0  0  0
 11 17  1  0  0  0
 11 18  1  0  0  0
 11 61  1  0  0  0
 12 16  1  0  0  0
 12 45  1  0  0  0
 12 46  2  0  0  0
 13 14  1  0  0  0
 13 15  1  0  0  0
 14 19  1  0  0  0
 14 62  1  0  0  0
 14 63  1  0  0  0
 15 64  1  0  0  0
 15 65  1  0  0  0
 15 66  1  0  0  0
 16 17  1  0  0  0
 17 67  1  0  0  0
 17 68  1  0  0  0
 18 22  2  0  0  0
 18 69  1  0  0  0
 19 20  1  0  0  0
 19 70  1  0  0  0
 19 71  1  0  0  0
 20 21  1  0  0  0
 20 72  1  0  0  0
 20 73  1  0  0  0
 21 22  1  0  0  0
 21 74  1  0  0  0
 21 75  1  0  0  0
 22 76  1  0  0  0
 23 30  1  0  0  0
 24 25  1  0  0  0
 24 29  2  0  0  0
 24 42  1  0  0  0
 25 26  2  0  0  0
 25 77  1  0  0  0
 26 27  1  0  0  0
 26 78  1  0  0  0
 27 28  2  0  0  0
 27 30  1  0  0  0
 28 29  1  0  0  0
 28 33  1  0  0  0
 29 44  1  0  0  0
 30 31  2  0  0  0
 31 32  1  0  0  0
 31 79  1  0  0  0
 32 33  2  0  0  0
 32 34  1  0  0  0
 34 35  1  0  0  0
 34 38  2  0  0  0
 35 36  1  0  0  0
 36 37  2  0  0  0
 36 80  1  0  0  0
 37 38  1  0  0  0
 37 39  1  0  0  0
 39 40  1  0  0  0
 39 41  1  0  0  0
 39 81  1  0  0  0
 40 82  1  0  0  0
 40 83  1  0  0  0
 40 84  1  0  0  0
 41 85  1  0  0  0
 41 86  1  0  0  0
 41 87  1  0  0  0
 42 43  1  0  0  0
 43 88  1  0  0  0
 43 89  1  0  0  0
 43 90  1  0  0  0
 44 91  1  0  0  0
 44 92  1  0  0  0
 44 93  1  0  0  0
 45 47  1  0  0  0
 45 99  1  0  0  0
 47 48  1  0  0  0
 47 49  2  0  0  0
 47 50  2  0  0  0
 48 51  1  0  0  0
 48 52  1  0  0  0
 48 94  1  0  0  0
 51 52  1  0  0  0
 51 95  1  0  0  0
 51 96  1  0  0  0
 52 97  1  0  0  0
 52 98  1  0  0  0
M  END
