3M6G
                    3D
 Structure written by MMmdl.
122125  0  0  1  0            999 V2000
   19.6109   62.5411   46.0239 C   0  0  0  0  0  0
   18.2849   62.2581   45.7739 O   0  0  0  0  0  0
   19.8409   63.7531   46.6489 C   0  0  0  0  0  0
   20.5889   61.8571   45.7459 O   0  0  0  0  0  0
   19.0459   64.4161   47.3649 C   0  0  0  0  0  0
   17.0299   68.0681   48.5729 O   0  0  0  0  0  0
   18.7299   65.5531   48.1319 C   0  0  0  0  0  0
   15.7039   68.3091   50.6669 O   0  0  0  0  0  0
   17.6589   66.0421   48.7859 C   0  0  0  0  0  0
   14.1749   65.4061   51.9389 O   0  0  0  0  0  0
   17.1199   67.1471   49.5529 C   0  0  2  0  0  0
   12.6199   63.0111   49.0749 O   0  0  0  0  0  0
   16.0999   66.9811   50.5169 C   0  0  1  0  0  0
   16.4149   62.5641   49.0039 O   0  0  0  0  0  0
   16.4249   66.4531   51.8049 C   0  0  0  0  0  0
   17.9039   59.0341   47.5519 O   0  0  0  0  0  0
   15.2489   66.2431   52.5209 C   0  0  2  0  0  0
   20.1289   60.6741   43.4829 O   0  0  0  0  0  0
   15.4539   65.9401   53.9589 C   0  0  0  0  0  0
   19.1429   57.9261   38.8969 O   0  0  0  0  0  0
   14.8149   64.9501   54.6299 C   0  0  0  0  0  0
   18.4399   59.5341   35.1069 O   0  0  0  0  0  0
   13.9279   63.9571   53.9639 C   0  0  0  0  0  0
   14.1349   63.9551   52.4529 C   0  0  1  0  0  0
   14.9479   60.9651   51.3469 O   0  0  0  0  0  0
   13.1989   63.2921   51.5919 C   0  0  0  0  0  0
   13.5839   62.9031   50.1609 C   0  0  1  0  0  0
   14.4519   61.5411   50.0559 C   0  0  1  0  0  0
   15.4289   61.5211   48.9569 C   0  0  2  0  0  0
   16.1069   60.3041   48.5789 C   0  0  0  0  0  0
   17.0779   60.2301   47.4399 C   0  0  2  0  0  0
   16.7009   60.4601   46.0299 C   0  0  1  0  0  0
   17.9359   60.9941   45.2489 C   0  0  1  0  0  0
   17.8059   61.1071   43.6989 C   0  0  2  0  0  0
   19.0569   61.3991   42.9449 C   0  0  2  0  0  0
   19.1049   61.4591   41.3939 C   0  0  2  0  0  0
   18.7429   60.0891   40.7519 C   0  0  0  0  0  0
   18.3879   60.0031   39.4269 C   0  0  0  0  0  0
   17.9519   58.6131   38.7749 C   0  0  1  0  0  0
   17.5369   58.6371   37.2669 C   0  0  0  0  0  0
   18.6689   58.9381   36.4669 C   0  0  1  0  0  0
   19.8529   58.1541   36.5359 C   0  0  0  0  0  0
   20.2409   58.1741   37.9989 C   0  0  2  0  0  0
   19.8839   66.4611   48.1869 C   0  0  0  0  0  0
   14.5469   68.8341   50.2149 C   0  0  0  0  0  0
   12.1589   64.3901   48.7529 C   0  0  0  0  0  0
   13.6769   60.1931   50.4369 C   0  0  0  0  0  0
   17.4339   62.5371   50.0309 C   0  0  0  0  0  0
   19.0239   58.6721   48.3989 C   0  0  0  0  0  0
   16.0699   59.1251   45.5019 C   0  0  0  0  0  0
   16.7199   62.0621   43.4069 C   0  0  0  0  0  0
   20.3969   62.1531   40.6949 C   0  0  0  0  0  0
   19.3879   60.0811   34.1349 C   0  0  0  0  0  0
   21.2899   57.1081   38.2709 C   0  0  0  0  0  0
   20.8566   64.1307   46.4601 H   0  0  0  0  0  0
   18.0441   64.0195   47.5867 H   0  0  0  0  0  0
   16.6445   69.0737   48.7969 H   0  0  0  0  0  0
   16.7304   65.4545   48.8372 H   0  0  0  0  0  0
   17.7295   67.5207   50.3888 H   0  0  0  0  0  0
   15.3723   66.2404   50.1535 H   0  0  0  0  0  0
   16.9610   65.5000   51.6858 H   0  0  0  0  0  0
   17.0637   67.1682   52.3438 H   0  0  0  0  0  0
   14.9075   67.2771   52.3652 H   0  0  0  0  0  0
   21.1332   60.7708   43.0448 H   0  0  0  0  0  0
   16.1787   66.5806   54.4827 H   0  0  0  0  0  0
   14.9405   64.8534   55.7184 H   0  0  0  0  0  0
   14.1499   62.9508   54.3489 H   0  0  0  0  0  0
   12.8770   64.2059   54.1728 H   0  0  0  0  0  0
   15.0247   63.3177   52.3432 H   0  0  0  0  0  0
   12.8974   62.3361   52.0450 H   0  0  0  0  0  0
   12.3123   63.9286   51.4547 H   0  0  0  0  0  0
   14.1034   63.8373   49.9017 H   0  0  0  0  0  0
   14.7036   61.6836   48.1460 H   0  0  0  0  0  0
   16.7093   59.9420   49.4251 H   0  0  0  0  0  0
   15.3641   59.5406   48.3043 H   0  0  0  0  0  0
   17.6270   61.1684   47.6071 H   0  0  0  0  0  0
   15.9445   61.2550   45.9520 H   0  0  0  0  0  0
   18.7683   60.3034   45.4488 H   0  0  0  0  0  0
   17.5515   60.1291   43.2642 H   0  0  0  0  0  0
   19.2010   62.4517   43.2298 H   0  0  0  0  0  0
   18.2741   62.1523   41.1961 H   0  0  0  0  0  0
   18.7738   59.1817   41.3730 H   0  0  0  0  0  0
   18.4009   60.9030   38.7945 H   0  0  0  0  0  0
   17.1147   58.1109   39.2819 H   0  0  0  0  0  0
   17.1382   57.6526   36.9806 H   0  0  0  0  0  0
   16.7646   59.4048   37.1113 H   0  0  0  0  0  0
   18.9411   59.6901   37.2220 H   0  0  0  0  0  0
   19.6384   57.1343   36.1837 H   0  0  0  0  0  0
   20.6292   58.6056   35.9008 H   0  0  0  0  0  0
   20.5761   59.1973   38.2236 H   0  0  0  0  0  0
   19.6263   67.3454   48.7882 H   0  0  0  0  0  0
   20.1515   66.7760   47.1675 H   0  0  0  0  0  0
   20.7377   65.9414   48.6462 H   0  0  0  0  0  0
   14.5023   69.9018   50.4754 H   0  0  0  0  0  0
   13.6996   68.3077   50.6786 H   0  0  0  0  0  0
   14.4951   68.7208   49.1220 H   0  0  0  0  0  0
   11.4380   64.3512   47.9230 H   0  0  0  0  0  0
   13.0219   65.0062   48.4604 H   0  0  0  0  0  0
   11.6763   64.8312   49.6375 H   0  0  0  0  0  0
   13.9927   59.1779   50.1547 H   0  0  0  0  0  0
   12.7674   60.1362   51.0530 H   0  0  0  0  0  0
   18.0966   63.4071   49.9128 H   0  0  0  0  0  0
   18.0227   61.6125   49.9390 H   0  0  0  0  0  0
   16.9570   62.5711   51.0215 H   0  0  0  0  0  0
   19.3581   57.6542   48.1496 H   0  0  0  0  0  0
   18.7127   58.7079   49.4534 H   0  0  0  0  0  0
   19.8503   59.3796   48.2362 H   0  0  0  0  0  0
   15.7729   59.2507   44.4502 H   0  0  0  0  0  0
   15.1851   58.8739   46.1053 H   0  0  0  0  0  0
   16.8091   58.3142   45.5798 H   0  0  0  0  0  0
   16.6037   62.1633   42.3177 H   0  0  0  0  0  0
   16.9664   63.0418   43.8420 H   0  0  0  0  0  0
   15.7800   61.6930   43.8432 H   0  0  0  0  0  0
   20.2847   62.1187   39.6012 H   0  0  0  0  0  0
   21.3078   61.6101   40.9873 H   0  0  0  0  0  0
   20.4729   63.2002   41.0230 H   0  0  0  0  0  0
   18.8418   60.4278   33.2452 H   0  0  0  0  0  0
   20.1057   59.3002   33.8433 H   0  0  0  0  0  0
   19.9286   60.9263   34.5857 H   0  0  0  0  0  0
   22.1502   57.2614   37.6028 H   0  0  0  0  0  0
   20.8573   56.1132   38.0892 H   0  0  0  0  0  0
   21.6212   57.1783   39.3174 H   0  0  0  0  0  0
  1  2  1  0  0  0
  1  3  1  0  0  0
  1  4  2  0  0  0
  2 33  1  0  0  0
  3  5  2  0  0  0
  3 55  1  0  0  0
  5  7  1  0  0  0
  5 56  1  0  0  0
  6 11  1  0  0  0
  6 57  1  0  0  0
  7  9  2  0  0  0
  7 44  1  0  0  0
  8 13  1  0  0  0
  8 45  1  0  0  0
  9 11  1  0  0  0
  9 58  1  0  0  0
 10 17  1  0  0  0
 10 24  1  0  0  0
 11 13  1  0  0  0
 11 59  1  0  0  0
 12 27  1  0  0  0
 12 46  1  0  0  0
 13 15  1  0  0  0
 13 60  1  0  0  0
 14 29  1  0  0  0
 14 48  1  0  0  0
 15 17  1  0  0  0
 15 61  1  0  0  0
 15 62  1  0  0  0
 16 31  1  0  0  0
 16 49  1  0  0  0
 17 19  1  0  0  0
 17 63  1  0  0  0
 18 35  1  0  0  0
 18 64  1  0  0  0
 19 21  2  0  0  0
 19 65  1  0  0  0
 20 39  1  0  0  0
 20 43  1  0  0  0
 21 23  1  0  0  0
 21 66  1  0  0  0
 22 41  1  0  0  0
 22 53  1  0  0  0
 23 24  1  0  0  0
 23 67  1  0  0  0
 23 68  1  0  0  0
 24 26  1  0  0  0
 24 69  1  0  0  0
 25 28  1  0  0  0
 25 47  1  0  0  0
 26 27  1  0  0  0
 26 70  1  0  0  0
 26 71  1  0  0  0
 27 28  1  0  0  0
 27 72  1  0  0  0
 28 29  1  0  0  0
 28 47  1  0  0  0
 29 30  1  0  0  0
 29 73  1  0  0  0
 30 31  1  0  0  0
 30 74  1  0  0  0
 30 75  1  0  0  0
 31 32  1  0  0  0
 31 76  1  0  0  0
 32 33  1  0  0  0
 32 50  1  0  0  0
 32 77  1  0  0  0
 33 34  1  0  0  0
 33 78  1  0  0  0
 34 35  1  0  0  0
 34 51  1  0  0  0
 34 79  1  0  0  0
 35 36  1  0  0  0
 35 80  1  0  0  0
 36 37  1  0  0  0
 36 52  1  0  0  0
 36 81  1  0  0  0
 37 38  2  0  0  0
 37 82  1  0  0  0
 38 39  1  0  0  0
 38 83  1  0  0  0
 39 40  1  0  0  0
 39 84  1  0  0  0
 40 41  1  0  0  0
 40 85  1  0  0  0
 40 86  1  0  0  0
 41 42  1  0  0  0
 41 87  1  0  0  0
 42 43  1  0  0  0
 42 88  1  0  0  0
 42 89  1  0  0  0
 43 54  1  0  0  0
 43 90  1  0  0  0
 44 91  1  0  0  0
 44 92  1  0  0  0
 44 93  1  0  0  0
 45 94  1  0  0  0
 45 95  1  0  0  0
 45 96  1  0  0  0
 46 97  1  0  0  0
 46 98  1  0  0  0
 46 99  1  0  0  0
 47100  1  0  0  0
 47101  1  0  0  0
 48102  1  0  0  0
 48103  1  0  0  0
 48104  1  0  0  0
 49105  1  0  0  0
 49106  1  0  0  0
 49107  1  0  0  0
 50108  1  0  0  0
 50109  1  0  0  0
 50110  1  0  0  0
 51111  1  0  0  0
 51112  1  0  0  0
 51113  1  0  0  0
 52114  1  0  0  0
 52115  1  0  0  0
 52116  1  0  0  0
 53117  1  0  0  0
 53118  1  0  0  0
 53119  1  0  0  0
 54120  1  0  0  0
 54121  1  0  0  0
 54122  1  0  0  0
M  END
