
     RDKit          3D

 59 61  0  0  0  0  0  0  0  0999 V2000
   -0.6077    1.4889   -0.2486 C   0  0  0  0  0  0  0  0  0  0  0  0
   -0.9135    0.1183   -0.0693 C   0  0  0  0  0  0  0  0  0  0  0  0
   -0.2713   -1.1573    0.0386 C   0  0  0  0  0  0  0  0  0  0  0  0
    0.7488   -1.3582    1.1070 C   0  0  0  0  0  0  0  0  0  0  0  0
    1.7674   -0.2834    1.3079 C   0  0  0  0  0  0  0  0  0  0  0  0
    2.7857   -0.1094    0.2441 C   0  0  0  0  0  0  0  0  0  0  0  0
    3.4754    1.2300    0.4882 C   0  0  0  0  0  0  0  0  0  0  0  0
    3.1087    2.2378   -0.5971 C   0  0  0  0  0  0  0  0  0  0  0  0
    2.0029    3.1468   -0.1681 C   0  0  0  0  0  0  0  0  0  0  0  0
    0.8858    3.2966   -1.1523 C   0  0  0  0  0  0  0  0  0  0  0  0
    0.1547    1.9860   -1.4301 C   0  0  0  0  0  0  0  0  0  0  0  0
    0.0781   -1.7409   -1.3020 C   0  0  0  0  0  0  0  0  0  0  0  0
    1.1033   -2.7992   -1.3387 C   0  0  0  0  0  0  0  0  0  0  0  0
    1.4302   -3.4994   -0.0769 C   0  0  0  0  0  0  0  0  0  0  0  0
    1.3570   -2.7140    1.1759 C   0  0  0  0  0  0  0  0  0  0  0  0
   -1.4458   -2.0556    0.5062 C   0  0  0  0  0  0  0  0  0  0  0  0
   -2.7649   -1.7888   -0.1213 C   0  0  0  0  0  0  0  0  0  0  0  0
   -3.7037   -0.8679    0.5995 C   0  0  0  0  0  0  0  0  0  0  0  0
   -3.9227    0.4912    0.0279 C   0  0  0  0  0  0  0  0  0  0  0  0
   -3.0540    1.6082    0.5077 C   0  0  0  0  0  0  0  0  0  0  0  0
   -2.0064    2.1248   -0.4129 C   0  0  0  0  0  0  0  0  0  0  0  0
   -0.2168    2.0794    0.6229 H   0  0  0  0  0  0  0  0  0  0  0  0
   -1.4161    0.2059    0.9309 H   0  0  0  0  0  0  0  0  0  0  0  0
   -1.6160   -0.1005   -0.9138 H   0  0  0  0  0  0  0  0  0  0  0  0
    0.1592   -1.2584    2.0643 H   0  0  0  0  0  0  0  0  0  0  0  0
    1.3350    0.6761    1.6927 H   0  0  0  0  0  0  0  0  0  0  0  0
    2.3531   -0.6373    2.2027 H   0  0  0  0  0  0  0  0  0  0  0  0
    3.5119   -0.9581    0.3043 H   0  0  0  0  0  0  0  0  0  0  0  0
    2.4162   -0.0630   -0.7841 H   0  0  0  0  0  0  0  0  0  0  0  0
    3.2350    1.6398    1.4890 H   0  0  0  0  0  0  0  0  0  0  0  0
    4.5686    1.0212    0.5014 H   0  0  0  0  0  0  0  0  0  0  0  0
    4.0605    2.7899   -0.8076 H   0  0  0  0  0  0  0  0  0  0  0  0
    2.9044    1.6486   -1.5011 H   0  0  0  0  0  0  0  0  0  0  0  0
    2.4486    4.1696   -0.0646 H   0  0  0  0  0  0  0  0  0  0  0  0
    1.6238    2.9081    0.8581 H   0  0  0  0  0  0  0  0  0  0  0  0
    1.2962    3.6790   -2.0967 H   0  0  0  0  0  0  0  0  0  0  0  0
    0.1487    3.9905   -0.7155 H   0  0  0  0  0  0  0  0  0  0  0  0
   -0.5108    2.2128   -2.3030 H   0  0  0  0  0  0  0  0  0  0  0  0
    0.9287    1.3206   -1.8195 H   0  0  0  0  0  0  0  0  0  0  0  0
   -0.8533   -2.1428   -1.7854 H   0  0  0  0  0  0  0  0  0  0  0  0
    0.3831   -0.9516   -2.0382 H   0  0  0  0  0  0  0  0  0  0  0  0
    2.0606   -2.3912   -1.7595 H   0  0  0  0  0  0  0  0  0  0  0  0
    0.8230   -3.5771   -2.0977 H   0  0  0  0  0  0  0  0  0  0  0  0
    2.4596   -3.9330   -0.1922 H   0  0  0  0  0  0  0  0  0  0  0  0
    0.7910   -4.4206   -0.0261 H   0  0  0  0  0  0  0  0  0  0  0  0
    0.8655   -3.3672    1.9453 H   0  0  0  0  0  0  0  0  0  0  0  0
    2.3943   -2.5866    1.5842 H   0  0  0  0  0  0  0  0  0  0  0  0
   -1.5615   -1.7938    1.5907 H   0  0  0  0  0  0  0  0  0  0  0  0
   -1.1317   -3.1169    0.5091 H   0  0  0  0  0  0  0  0  0  0  0  0
   -3.2592   -2.8045   -0.0546 H   0  0  0  0  0  0  0  0  0  0  0  0
   -2.7645   -1.6681   -1.2269 H   0  0  0  0  0  0  0  0  0  0  0  0
   -4.7153   -1.3547    0.6781 H   0  0  0  0  0  0  0  0  0  0  0  0
   -3.3858   -0.8469    1.6743 H   0  0  0  0  0  0  0  0  0  0  0  0
   -3.8952    0.4402   -1.0817 H   0  0  0  0  0  0  0  0  0  0  0  0
   -4.9965    0.7625    0.2261 H   0  0  0  0  0  0  0  0  0  0  0  0
   -3.7356    2.5067    0.5863 H   0  0  0  0  0  0  0  0  0  0  0  0
   -2.7442    1.5165    1.5756 H   0  0  0  0  0  0  0  0  0  0  0  0
   -1.8621    3.2131   -0.4083 H   0  0  0  0  0  0  0  0  0  0  0  0
   -2.3105    1.8372   -1.4519 H   0  0  0  0  0  0  0  0  0  0  0  0
  1  2  1  0
  2  3  1  0
  3  4  1  0
  4  5  1  0
  5  6  1  0
  6  7  1  0
  7  8  1  0
  8  9  1  0
  9 10  1  0
 10 11  1  0
  3 12  1  0
 12 13  1  0
 13 14  1  0
 14 15  1  0
  3 16  1  0
 16 17  1  0
 17 18  1  0
 18 19  1  0
 19 20  1  0
 20 21  1  0
 21  1  1  0
 11  1  1  0
 15  4  1  0
  1 22  1  0
  2 23  1  0
  2 24  1  0
  4 25  1  0
  5 26  1  0
  5 27  1  0
  6 28  1  0
  6 29  1  0
  7 30  1  0
  7 31  1  0
  8 32  1  0
  8 33  1  0
  9 34  1  0
  9 35  1  0
 10 36  1  0
 10 37  1  0
 11 38  1  0
 11 39  1  0
 12 40  1  0
 12 41  1  0
 13 42  1  0
 13 43  1  0
 14 44  1  0
 14 45  1  0
 15 46  1  0
 15 47  1  0
 16 48  1  0
 16 49  1  0
 17 50  1  0
 17 51  1  0
 18 52  1  0
 18 53  1  0
 19 54  1  0
 19 55  1  0
 20 56  1  0
 20 57  1  0
 21 58  1  0
 21 59  1  0
M  END
