
     RDKit          3D

 83 85  0  0  0  0  0  0  0  0999 V2000
    1.5938    1.8795   -0.1261 C   0  0  0  0  0  0  0  0  0  0  0  0
    2.1235    2.8265   -1.2029 C   0  0  0  0  0  0  0  0  0  0  0  0
    1.7785    4.2618   -0.8489 C   0  0  0  0  0  0  0  0  0  0  0  0
    0.3601    4.6214   -1.2544 C   0  0  0  0  0  0  0  0  0  0  0  0
   -0.5055    4.8857   -0.0609 C   0  0  0  0  0  0  0  0  0  0  0  0
   -1.9228    4.4286   -0.2042 C   0  0  0  0  0  0  0  0  0  0  0  0
   -2.1075    2.9877   -0.5192 C   0  0  0  0  0  0  0  0  0  0  0  0
   -2.3571    2.1228    0.7025 C   0  0  0  0  0  0  0  0  0  0  0  0
   -2.1055    0.6614    0.3538 C   0  0  0  0  0  0  0  0  0  0  0  0
   -0.7004    0.2212    0.7076 C   0  0  0  0  0  0  0  0  0  0  0  0
    2.6137    1.9653    1.0074 C   0  0  0  0  0  0  0  0  0  0  0  0
    3.8919    1.2626    0.5645 C   0  0  0  0  0  0  0  0  0  0  0  0
    4.3275    0.2015    1.5320 C   0  0  0  0  0  0  0  0  0  0  0  0
    5.0226   -0.9695    0.8479 C   0  0  0  0  0  0  0  0  0  0  0  0
    4.1275   -2.1871    1.0279 C   0  0  0  0  0  0  0  0  0  0  0  0
    3.7441   -2.8094   -0.2975 C   0  0  0  0  0  0  0  0  0  0  0  0
    2.2655   -3.1508   -0.3276 C   0  0  0  0  0  0  0  0  0  0  0  0
    1.4791   -2.1822   -1.2048 C   0  0  0  0  0  0  0  0  0  0  0  0
    0.2789   -1.6681   -0.5063 C   0  0  0  0  0  0  0  0  0  0  0  0
   -0.9429   -2.3583   -1.0972 C   0  0  0  0  0  0  0  0  0  0  0  0
   -1.4266   -3.4018   -0.1126 C   0  0  0  0  0  0  0  0  0  0  0  0
   -2.5451   -4.2365   -0.6111 C   0  0  0  0  0  0  0  0  0  0  0  0
   -3.9096   -3.6450   -0.5190 C   0  0  0  0  0  0  0  0  0  0  0  0
   -4.2993   -3.1263    0.8229 C   0  0  0  0  0  0  0  0  0  0  0  0
   -4.9949   -1.7874    0.7863 C   0  0  0  0  0  0  0  0  0  0  0  0
   -4.1867   -0.6946    0.1705 C   0  0  0  0  0  0  0  0  0  0  0  0
   -3.1599   -0.1220    1.1275 C   0  0  0  0  0  0  0  0  0  0  0  0
    0.1166   -0.1591   -0.4944 C   0  0  0  0  0  0  0  0  0  0  0  0
    1.4441    0.4833   -0.6066 C   0  0  0  0  0  0  0  0  0  0  0  0
    0.6890    2.3662    0.2436 H   0  0  0  0  0  0  0  0  0  0  0  0
    3.2261    2.7282   -1.3046 H   0  0  0  0  0  0  0  0  0  0  0  0
    1.6279    2.6277   -2.1860 H   0  0  0  0  0  0  0  0  0  0  0  0
    1.8764    4.4736    0.2290 H   0  0  0  0  0  0  0  0  0  0  0  0
    2.5381    4.8915   -1.3580 H   0  0  0  0  0  0  0  0  0  0  0  0
    0.4526    5.5327   -1.8995 H   0  0  0  0  0  0  0  0  0  0  0  0
   -0.0034    3.8278   -1.9204 H   0  0  0  0  0  0  0  0  0  0  0  0
   -0.5523    5.9998    0.0569 H   0  0  0  0  0  0  0  0  0  0  0  0
   -0.0517    4.5366    0.9015 H   0  0  0  0  0  0  0  0  0  0  0  0
   -2.4189    4.6241    0.7800 H   0  0  0  0  0  0  0  0  0  0  0  0
   -2.4232    5.1233   -0.9184 H   0  0  0  0  0  0  0  0  0  0  0  0
   -1.3028    2.5113   -1.0867 H   0  0  0  0  0  0  0  0  0  0  0  0
   -3.0301    2.8964   -1.1470 H   0  0  0  0  0  0  0  0  0  0  0  0
   -3.4232    2.2938    0.9939 H   0  0  0  0  0  0  0  0  0  0  0  0
   -1.7573    2.4482    1.5726 H   0  0  0  0  0  0  0  0  0  0  0  0
   -2.2679    0.5894   -0.7476 H   0  0  0  0  0  0  0  0  0  0  0  0
   -0.1868    0.9514    1.3808 H   0  0  0  0  0  0  0  0  0  0  0  0
   -0.8334   -0.6753    1.3684 H   0  0  0  0  0  0  0  0  0  0  0  0
    2.7834    3.0048    1.3149 H   0  0  0  0  0  0  0  0  0  0  0  0
    2.1850    1.3665    1.8508 H   0  0  0  0  0  0  0  0  0  0  0  0
    3.8275    0.9084   -0.4850 H   0  0  0  0  0  0  0  0  0  0  0  0
    4.6772    2.0610    0.5569 H   0  0  0  0  0  0  0  0  0  0  0  0
    5.0372    0.6452    2.2738 H   0  0  0  0  0  0  0  0  0  0  0  0
    3.4392   -0.1333    2.1184 H   0  0  0  0  0  0  0  0  0  0  0  0
    5.9923   -1.1696    1.3350 H   0  0  0  0  0  0  0  0  0  0  0  0
    5.1913   -0.7504   -0.2207 H   0  0  0  0  0  0  0  0  0  0  0  0
    4.6097   -2.9517    1.6608 H   0  0  0  0  0  0  0  0  0  0  0  0
    3.1732   -1.9228    1.5482 H   0  0  0  0  0  0  0  0  0  0  0  0
    4.3195   -3.7439   -0.4564 H   0  0  0  0  0  0  0  0  0  0  0  0
    3.9462   -2.1098   -1.1222 H   0  0  0  0  0  0  0  0  0  0  0  0
    2.1111   -4.2006   -0.6138 H   0  0  0  0  0  0  0  0  0  0  0  0
    1.8692   -3.0494    0.7094 H   0  0  0  0  0  0  0  0  0  0  0  0
    1.1979   -2.7840   -2.1079 H   0  0  0  0  0  0  0  0  0  0  0  0
    2.2018   -1.4468   -1.5652 H   0  0  0  0  0  0  0  0  0  0  0  0
    0.3727   -1.9513    0.5739 H   0  0  0  0  0  0  0  0  0  0  0  0
   -0.6722   -2.9207   -2.0259 H   0  0  0  0  0  0  0  0  0  0  0  0
   -1.7328   -1.6528   -1.3867 H   0  0  0  0  0  0  0  0  0  0  0  0
   -1.5865   -2.8878    0.8411 H   0  0  0  0  0  0  0  0  0  0  0  0
   -0.5518   -4.0827    0.0513 H   0  0  0  0  0  0  0  0  0  0  0  0
   -2.4987   -5.2474   -0.1317 H   0  0  0  0  0  0  0  0  0  0  0  0
   -2.3539   -4.4372   -1.6966 H   0  0  0  0  0  0  0  0  0  0  0  0
   -4.6267   -4.4590   -0.8025 H   0  0  0  0  0  0  0  0  0  0  0  0
   -4.0083   -2.9005   -1.3434 H   0  0  0  0  0  0  0  0  0  0  0  0
   -5.0258   -3.8261    1.3122 H   0  0  0  0  0  0  0  0  0  0  0  0
   -3.4742   -3.0290    1.5466 H   0  0  0  0  0  0  0  0  0  0  0  0
   -5.1749   -1.5034    1.8541 H   0  0  0  0  0  0  0  0  0  0  0  0
   -5.9734   -1.9309    0.3116 H   0  0  0  0  0  0  0  0  0  0  0  0
   -3.6064   -1.0085   -0.7277 H   0  0  0  0  0  0  0  0  0  0  0  0
   -4.8907    0.0880   -0.2049 H   0  0  0  0  0  0  0  0  0  0  0  0
   -2.6547   -0.9732    1.6034 H   0  0  0  0  0  0  0  0  0  0  0  0
   -3.6397    0.4761    1.9135 H   0  0  0  0  0  0  0  0  0  0  0  0
   -0.4874    0.1066   -1.3932 H   0  0  0  0  0  0  0  0  0  0  0  0
    2.1485   -0.1461   -0.0131 H   0  0  0  0  0  0  0  0  0  0  0  0
    1.7127    0.5041   -1.6943 H   0  0  0  0  0  0  0  0  0  0  0  0
  1  2  1  0
  2  3  1  0
  3  4  1  0
  4  5  1  0
  5  6  1  0
  6  7  1  0
  7  8  1  0
  8  9  1  0
  9 10  1  0
  1 11  1  0
 11 12  1  0
 12 13  1  0
 13 14  1  0
 14 15  1  0
 15 16  1  0
 16 17  1  0
 17 18  1  0
 18 19  1  0
 19 20  1  0
 20 21  1  0
 21 22  1  0
 22 23  1  0
 23 24  1  0
 24 25  1  0
 25 26  1  0
 26 27  1  0
 19 28  1  0
 28 29  1  0
 29  1  1  0
 27  9  1  0
 28 10  1  0
  1 30  1  0
  2 31  1  0
  2 32  1  0
  3 33  1  0
  3 34  1  0
  4 35  1  0
  4 36  1  0
  5 37  1  0
  5 38  1  0
  6 39  1  0
  6 40  1  0
  7 41  1  0
  7 42  1  0
  8 43  1  0
  8 44  1  0
  9 45  1  0
 10 46  1  0
 10 47  1  0
 11 48  1  0
 11 49  1  0
 12 50  1  0
 12 51  1  0
 13 52  1  0
 13 53  1  0
 14 54  1  0
 14 55  1  0
 15 56  1  0
 15 57  1  0
 16 58  1  0
 16 59  1  0
 17 60  1  0
 17 61  1  0
 18 62  1  0
 18 63  1  0
 19 64  1  0
 20 65  1  0
 20 66  1  0
 21 67  1  0
 21 68  1  0
 22 69  1  0
 22 70  1  0
 23 71  1  0
 23 72  1  0
 24 73  1  0
 24 74  1  0
 25 75  1  0
 25 76  1  0
 26 77  1  0
 26 78  1  0
 27 79  1  0
 27 80  1  0
 28 81  1  0
 29 82  1  0
 29 83  1  0
M  END
