
     RDKit          3D

 56 58  0  0  0  0  0  0  0  0999 V2000
    2.7563    1.3433   -0.5686 C   0  0  0  0  0  0  0  0  0  0  0  0
    2.9723    1.2052    0.8986 C   0  0  0  0  0  0  0  0  0  0  0  0
    3.9467    0.0502    1.1096 C   0  0  0  0  0  0  0  0  0  0  0  0
    3.1681   -1.2183    0.8280 C   0  0  0  0  0  0  0  0  0  0  0  0
    1.8909    2.4973   -0.9678 C   0  0  0  0  0  0  0  0  0  0  0  0
    0.5266    2.5048   -0.4173 C   0  0  0  0  0  0  0  0  0  0  0  0
   -0.5585    2.4575   -1.4970 C   0  0  0  0  0  0  0  0  0  0  0  0
   -1.9125    2.4682   -0.8318 C   0  0  0  0  0  0  0  0  0  0  0  0
   -2.1842    1.2682   -0.0008 C   0  0  0  0  0  0  0  0  0  0  0  0
   -1.8514   -0.0407   -0.6726 C   0  0  0  0  0  0  0  0  0  0  0  0
   -2.1166   -1.1251    0.3795 C   0  0  0  0  0  0  0  0  0  0  0  0
   -3.5950   -1.2100    0.6218 C   0  0  0  0  0  0  0  0  0  0  0  0
   -4.0462    0.1026    1.2128 C   0  0  0  0  0  0  0  0  0  0  0  0
   -3.6486    1.2970    0.4074 C   0  0  0  0  0  0  0  0  0  0  0  0
   -1.4725   -2.4265    0.0295 C   0  0  0  0  0  0  0  0  0  0  0  0
   -0.3150   -2.7302    0.9527 C   0  0  0  0  0  0  0  0  0  0  0  0
    0.8980   -3.2265    0.2256 C   0  0  0  0  0  0  0  0  0  0  0  0
    1.4977   -2.2311   -0.7145 C   0  0  0  0  0  0  0  0  0  0  0  0
    1.9511   -0.9625   -0.0348 C   0  0  0  0  0  0  0  0  0  0  0  0
    2.3004    0.0233   -1.1421 C   0  0  0  0  0  0  0  0  0  0  0  0
    3.7723    1.5389   -1.0264 H   0  0  0  0  0  0  0  0  0  0  0  0
    2.0864    0.9714    1.4838 H   0  0  0  0  0  0  0  0  0  0  0  0
    3.4469    2.0972    1.3544 H   0  0  0  0  0  0  0  0  0  0  0  0
    4.3315    0.0647    2.1468 H   0  0  0  0  0  0  0  0  0  0  0  0
    4.8049    0.1197    0.4075 H   0  0  0  0  0  0  0  0  0  0  0  0
    2.8766   -1.6557    1.8004 H   0  0  0  0  0  0  0  0  0  0  0  0
    3.8274   -1.9100    0.2501 H   0  0  0  0  0  0  0  0  0  0  0  0
    2.4572    3.4316   -0.7051 H   0  0  0  0  0  0  0  0  0  0  0  0
    1.8395    2.5013   -2.0805 H   0  0  0  0  0  0  0  0  0  0  0  0
    0.3545    3.4926    0.1046 H   0  0  0  0  0  0  0  0  0  0  0  0
    0.2809    1.7348    0.3077 H   0  0  0  0  0  0  0  0  0  0  0  0
   -0.4703    3.4194   -2.0546 H   0  0  0  0  0  0  0  0  0  0  0  0
   -0.4142    1.6473   -2.2064 H   0  0  0  0  0  0  0  0  0  0  0  0
   -1.9212    3.3597   -0.1544 H   0  0  0  0  0  0  0  0  0  0  0  0
   -2.7066    2.6476   -1.5849 H   0  0  0  0  0  0  0  0  0  0  0  0
   -1.6047    1.2934    0.9485 H   0  0  0  0  0  0  0  0  0  0  0  0
   -0.7765   -0.0624   -0.8790 H   0  0  0  0  0  0  0  0  0  0  0  0
   -2.4890   -0.2752   -1.5316 H   0  0  0  0  0  0  0  0  0  0  0  0
   -1.6425   -0.7421    1.3105 H   0  0  0  0  0  0  0  0  0  0  0  0
   -3.8469   -2.0089    1.3170 H   0  0  0  0  0  0  0  0  0  0  0  0
   -4.1511   -1.3966   -0.3191 H   0  0  0  0  0  0  0  0  0  0  0  0
   -5.1735    0.0700    1.2073 H   0  0  0  0  0  0  0  0  0  0  0  0
   -3.7705    0.1775    2.2887 H   0  0  0  0  0  0  0  0  0  0  0  0
   -3.8036    2.1966    1.0438 H   0  0  0  0  0  0  0  0  0  0  0  0
   -4.3074    1.4121   -0.4764 H   0  0  0  0  0  0  0  0  0  0  0  0
   -1.1705   -2.4949   -1.0331 H   0  0  0  0  0  0  0  0  0  0  0  0
   -2.2613   -3.2236    0.1577 H   0  0  0  0  0  0  0  0  0  0  0  0
   -0.6156   -3.5239    1.6718 H   0  0  0  0  0  0  0  0  0  0  0  0
   -0.1017   -1.8308    1.5777 H   0  0  0  0  0  0  0  0  0  0  0  0
    0.5946   -4.1089   -0.3673 H   0  0  0  0  0  0  0  0  0  0  0  0
    1.6628   -3.4722    0.9897 H   0  0  0  0  0  0  0  0  0  0  0  0
    2.3163   -2.7305   -1.2624 H   0  0  0  0  0  0  0  0  0  0  0  0
    0.7432   -1.9421   -1.4734 H   0  0  0  0  0  0  0  0  0  0  0  0
    1.1144   -0.5380    0.5176 H   0  0  0  0  0  0  0  0  0  0  0  0
    1.4309    0.1701   -1.7929 H   0  0  0  0  0  0  0  0  0  0  0  0
    3.0798   -0.4768   -1.7562 H   0  0  0  0  0  0  0  0  0  0  0  0
  1  2  1  0
  2  3  1  0
  3  4  1  0
  1  5  1  0
  5  6  1  0
  6  7  1  0
  7  8  1  0
  8  9  1  0
  9 10  1  0
 10 11  1  0
 11 12  1  0
 12 13  1  0
 13 14  1  0
 11 15  1  0
 15 16  1  0
 16 17  1  0
 17 18  1  0
 18 19  1  0
 19 20  1  0
 20  1  1  0
 19  4  1  0
 14  9  1  0
  1 21  1  0
  2 22  1  0
  2 23  1  0
  3 24  1  0
  3 25  1  0
  4 26  1  0
  4 27  1  0
  5 28  1  0
  5 29  1  0
  6 30  1  0
  6 31  1  0
  7 32  1  0
  7 33  1  0
  8 34  1  0
  8 35  1  0
  9 36  1  0
 10 37  1  0
 10 38  1  0
 11 39  1  0
 12 40  1  0
 12 41  1  0
 13 42  1  0
 13 43  1  0
 14 44  1  0
 14 45  1  0
 15 46  1  0
 15 47  1  0
 16 48  1  0
 16 49  1  0
 17 50  1  0
 17 51  1  0
 18 52  1  0
 18 53  1  0
 19 54  1  0
 20 55  1  0
 20 56  1  0
M  END
