
     RDKit          3D

 60 65  0  0  0  0  0  0  0  0999 V2000
   -1.0842    0.8147   -0.1387 C   0  0  2  0  0  0  0  0  0  0  0  0
   -0.3414    1.7544   -1.0595 C   0  0  0  0  0  0  0  0  0  0  0  0
    1.1075    1.8748   -0.8080 C   0  0  1  0  0  0  0  0  0  0  0  0
    1.7335    0.8132   -0.0145 C   0  0  0  0  0  0  0  0  0  0  0  0
    1.8996   -0.3833   -0.5952 C   0  0  0  0  0  0  0  0  0  0  0  0
    2.6586   -1.5914   -0.1932 C   0  0  0  0  0  0  0  0  0  0  0  0
    3.6950   -1.3028    0.8568 C   0  0  0  0  0  0  0  0  0  0  0  0
    3.0903   -0.9243    2.1761 C   0  0  0  0  0  0  0  0  0  0  0  0
    4.2311    0.0997    0.6648 C   0  0  0  0  0  0  0  0  0  0  0  0
    3.3640    0.5272    1.8353 C   0  0  0  0  0  0  0  0  0  0  0  0
    2.1084    1.2296    1.3640 C   0  0  0  0  0  0  0  0  0  0  0  0
    1.8049    1.8435   -2.1773 C   0  0  0  0  0  0  0  0  0  0  0  0
    1.4504    0.5533   -2.8670 C   0  0  0  0  0  0  0  0  0  0  0  0
    1.2102   -0.5947   -1.9010 C   0  0  2  0  0  0  0  0  0  0  0  0
   -0.2422   -0.9181   -1.7325 C   0  0  0  0  0  0  0  0  0  0  0  0
   -0.7457   -0.6185   -0.3147 C   0  0  2  0  0  0  0  0  0  0  0  0
   -2.5572    1.1283   -0.1692 C   0  0  2  0  0  0  0  0  0  0  0  0
   -3.1167    1.3204    1.2376 C   0  0  0  0  0  0  0  0  0  0  0  0
   -3.6870    0.0733    1.8216 C   0  0  0  0  0  0  0  0  0  0  0  0
   -2.5804   -0.8173    2.2647 C   0  0  0  0  0  0  0  0  0  0  0  0
   -2.1697   -1.8745    1.3445 C   0  0  0  0  0  0  0  0  0  0  0  0
   -1.8850   -1.5770   -0.0634 C   0  0  1  0  0  0  0  0  0  0  0  0
   -3.0384   -1.2231   -0.9294 C   0  0  0  0  0  0  0  0  0  0  0  0
   -3.3684    0.2223   -1.0131 C   0  0  0  0  0  0  0  0  0  0  0  0
   -0.7238    1.1085    0.8940 H   0  0  0  0  0  0  0  0  0  0  0  0
   -0.5986    1.5774   -2.1414 H   0  0  0  0  0  0  0  0  0  0  0  0
   -0.7986    2.7728   -0.8591 H   0  0  0  0  0  0  0  0  0  0  0  0
    1.3973    2.8545   -0.3547 H   0  0  0  0  0  0  0  0  0  0  0  0
    3.2197   -1.9923   -1.0850 H   0  0  0  0  0  0  0  0  0  0  0  0
    1.9693   -2.3961    0.1032 H   0  0  0  0  0  0  0  0  0  0  0  0
    4.4537   -2.0901    0.8761 H   0  0  0  0  0  0  0  0  0  0  0  0
    3.6872   -1.3255    3.0129 H   0  0  0  0  0  0  0  0  0  0  0  0
    2.0146   -1.1965    2.1888 H   0  0  0  0  0  0  0  0  0  0  0  0
    3.9617    0.5193   -0.3090 H   0  0  0  0  0  0  0  0  0  0  0  0
    5.3274    0.1302    0.8797 H   0  0  0  0  0  0  0  0  0  0  0  0
    3.8841    1.1155    2.5887 H   0  0  0  0  0  0  0  0  0  0  0  0
    1.3341    1.0336    2.1156 H   0  0  0  0  0  0  0  0  0  0  0  0
    2.3746    2.3256    1.3185 H   0  0  0  0  0  0  0  0  0  0  0  0
    2.8809    1.9891   -2.0424 H   0  0  0  0  0  0  0  0  0  0  0  0
    1.3596    2.6723   -2.7783 H   0  0  0  0  0  0  0  0  0  0  0  0
    0.5787    0.6922   -3.5521 H   0  0  0  0  0  0  0  0  0  0  0  0
    2.3140    0.3393   -3.5632 H   0  0  0  0  0  0  0  0  0  0  0  0
    1.6849   -1.4864   -2.4137 H   0  0  0  0  0  0  0  0  0  0  0  0
   -0.9034   -0.4065   -2.4721 H   0  0  0  0  0  0  0  0  0  0  0  0
   -0.4308   -2.0172   -1.9254 H   0  0  0  0  0  0  0  0  0  0  0  0
    0.0647   -0.9672    0.3934 H   0  0  0  0  0  0  0  0  0  0  0  0
   -2.6658    2.1656   -0.6150 H   0  0  0  0  0  0  0  0  0  0  0  0
   -3.9439    2.0891    1.2384 H   0  0  0  0  0  0  0  0  0  0  0  0
   -2.3462    1.7059    1.9015 H   0  0  0  0  0  0  0  0  0  0  0  0
   -4.2857    0.4064    2.7239 H   0  0  0  0  0  0  0  0  0  0  0  0
   -4.4336   -0.4368    1.1828 H   0  0  0  0  0  0  0  0  0  0  0  0
   -1.7371   -0.1699    2.6453 H   0  0  0  0  0  0  0  0  0  0  0  0
   -2.9394   -1.3275    3.2125 H   0  0  0  0  0  0  0  0  0  0  0  0
   -2.9531   -2.6875    1.3595 H   0  0  0  0  0  0  0  0  0  0  0  0
   -1.2636   -2.3830    1.7822 H   0  0  0  0  0  0  0  0  0  0  0  0
   -1.4808   -2.5625   -0.4734 H   0  0  0  0  0  0  0  0  0  0  0  0
   -3.9225   -1.8752   -0.6627 H   0  0  0  0  0  0  0  0  0  0  0  0
   -2.7947   -1.5599   -1.9838 H   0  0  0  0  0  0  0  0  0  0  0  0
   -3.3753    0.6102   -2.0762 H   0  0  0  0  0  0  0  0  0  0  0  0
   -4.4471    0.3432   -0.6977 H   0  0  0  0  0  0  0  0  0  0  0  0
  1  2  1  0
  2  3  1  0
  3  4  1  0
  4  5  2  0
  5  6  1  0
  6  7  1  0
  7  8  1  0
  7  9  1  0
  9 10  1  0
 10 11  1  0
  3 12  1  0
 12 13  1  0
 13 14  1  0
 14 15  1  0
 15 16  1  0
  1 17  1  0
 17 18  1  0
 18 19  1  0
 19 20  1  0
 20 21  1  0
 21 22  1  0
 22 23  1  0
 23 24  1  0
 16  1  1  0
 11  4  1  0
 14  5  1  0
 10  8  1  0
 22 16  1  0
 24 17  1  0
  1 25  1  1
  2 26  1  0
  2 27  1  0
  3 28  1  1
  6 29  1  0
  6 30  1  0
  7 31  1  0
  8 32  1  0
  8 33  1  0
  9 34  1  0
  9 35  1  0
 10 36  1  0
 11 37  1  0
 11 38  1  0
 12 39  1  0
 12 40  1  0
 13 41  1  0
 13 42  1  0
 14 43  1  6
 15 44  1  0
 15 45  1  0
 16 46  1  1
 17 47  1  6
 18 48  1  0
 18 49  1  0
 19 50  1  0
 19 51  1  0
 20 52  1  0
 20 53  1  0
 21 54  1  0
 21 55  1  0
 22 56  1  6
 23 57  1  0
 23 58  1  0
 24 59  1  0
 24 60  1  0
M  END
