
     RDKit          3D

 48 51  0  0  0  0  0  0  0  0999 V2000
   -2.2868   -2.2502    0.9856 C   0  0  0  0  0  0  0  0  0  0  0  0
   -1.7701   -0.7893    0.9216 C   0  0  2  0  0  0  0  0  0  0  0  0
   -2.2903   -0.2675   -0.3640 C   0  0  0  0  0  0  0  0  0  0  0  0
   -3.8262   -0.3993   -0.2332 C   0  0  0  0  0  0  0  0  0  0  0  0
   -4.3258    0.4962   -1.3709 C   0  0  0  0  0  0  0  0  0  0  0  0
   -3.4790    1.7226   -1.1234 C   0  0  0  0  0  0  0  0  0  0  0  0
   -2.1401    1.1881   -0.6140 C   0  0  0  0  0  0  0  0  0  0  0  0
   -0.2968   -0.8494    1.1381 C   0  0  2  0  0  0  0  0  0  0  0  0
    0.4996    0.3764    1.1420 C   0  0  0  0  0  0  0  0  0  0  0  0
    1.0617    0.9328   -0.1007 C   0  0  2  0  0  0  0  0  0  0  0  0
    1.1597    0.0395   -1.2810 C   0  0  0  0  0  0  0  0  0  0  0  0
    2.2670   -0.8904   -0.8354 C   0  0  1  0  0  0  0  0  0  0  0  0
    3.2172    0.1554   -0.3197 C   0  0  0  0  0  0  0  0  0  0  0  0
    2.5064    1.2497    0.1098 C   0  0  0  0  0  0  0  0  0  0  0  0
    3.1738    2.3437    0.6199 C   0  0  0  0  0  0  0  0  0  0  0  0
    4.5421    2.3932    0.7217 C   0  0  0  0  0  0  0  0  0  0  0  0
    5.2614    1.2942    0.2911 C   0  0  0  0  0  0  0  0  0  0  0  0
    4.5860    0.2008   -0.2194 C   0  0  0  0  0  0  0  0  0  0  0  0
    1.8322   -1.8406    0.2361 C   0  0  0  0  0  0  0  0  0  0  0  0
    0.3483   -1.9920    0.3506 C   0  0  0  0  0  0  0  0  0  0  0  0
   -1.7138   -2.8137    1.7370 H   0  0  0  0  0  0  0  0  0  0  0  0
   -2.2735   -2.6991   -0.0194 H   0  0  0  0  0  0  0  0  0  0  0  0
   -3.3460   -2.2599    1.3212 H   0  0  0  0  0  0  0  0  0  0  0  0
   -2.3266   -0.2792    1.7332 H   0  0  0  0  0  0  0  0  0  0  0  0
   -2.0450   -0.9073   -1.2306 H   0  0  0  0  0  0  0  0  0  0  0  0
   -4.1499   -1.4309   -0.3751 H   0  0  0  0  0  0  0  0  0  0  0  0
   -4.1776    0.0739    0.7039 H   0  0  0  0  0  0  0  0  0  0  0  0
   -5.3735    0.7729   -1.2277 H   0  0  0  0  0  0  0  0  0  0  0  0
   -4.0860    0.0221   -2.3226 H   0  0  0  0  0  0  0  0  0  0  0  0
   -3.9971    2.3353   -0.3490 H   0  0  0  0  0  0  0  0  0  0  0  0
   -3.3709    2.3613   -2.0057 H   0  0  0  0  0  0  0  0  0  0  0  0
   -1.8985    1.7966    0.2635 H   0  0  0  0  0  0  0  0  0  0  0  0
   -1.4425    1.3344   -1.4754 H   0  0  0  0  0  0  0  0  0  0  0  0
   -0.2335   -1.2481    2.2122 H   0  0  0  0  0  0  0  0  0  0  0  0
   -0.0666    1.1933    1.6567 H   0  0  0  0  0  0  0  0  0  0  0  0
    1.3549    0.2213    1.8780 H   0  0  0  0  0  0  0  0  0  0  0  0
    0.6266    1.9498   -0.3672 H   0  0  0  0  0  0  0  0  0  0  0  0
    1.6192    0.6577   -2.1099 H   0  0  0  0  0  0  0  0  0  0  0  0
    0.2785   -0.4173   -1.6712 H   0  0  0  0  0  0  0  0  0  0  0  0
    2.7081   -1.3780   -1.7277 H   0  0  0  0  0  0  0  0  0  0  0  0
    2.6299    3.2314    0.9700 H   0  0  0  0  0  0  0  0  0  0  0  0
    5.0717    3.2656    1.1284 H   0  0  0  0  0  0  0  0  0  0  0  0
    6.3434    1.3277    0.3693 H   0  0  0  0  0  0  0  0  0  0  0  0
    5.2142   -0.6327   -0.5411 H   0  0  0  0  0  0  0  0  0  0  0  0
    2.2997   -1.6253    1.2232 H   0  0  0  0  0  0  0  0  0  0  0  0
    2.2334   -2.8542   -0.0511 H   0  0  0  0  0  0  0  0  0  0  0  0
    0.1765   -2.9870    0.8647 H   0  0  0  0  0  0  0  0  0  0  0  0
   -0.0955   -2.1244   -0.6425 H   0  0  0  0  0  0  0  0  0  0  0  0
  1  2  1  0
  2  3  1  0
  3  4  1  0
  4  5  1  0
  5  6  1  0
  6  7  1  0
  2  8  1  0
  8  9  1  0
  9 10  1  0
 10 11  1  0
 11 12  1  0
 12 13  1  0
 13 14  2  0
 14 15  1  0
 15 16  2  0
 16 17  1  0
 17 18  2  0
 12 19  1  0
 19 20  1  0
  7  3  1  0
 20  8  1  0
 14 10  1  0
 18 13  1  0
  1 21  1  0
  1 22  1  0
  1 23  1  0
  2 24  1  1
  3 25  1  0
  4 26  1  0
  4 27  1  0
  5 28  1  0
  5 29  1  0
  6 30  1  0
  6 31  1  0
  7 32  1  0
  7 33  1  0
  8 34  1  1
  9 35  1  0
  9 36  1  0
 10 37  1  6
 11 38  1  0
 11 39  1  0
 12 40  1  6
 15 41  1  0
 16 42  1  0
 17 43  1  0
 18 44  1  0
 19 45  1  0
 19 46  1  0
 20 47  1  0
 20 48  1  0
M  END
