
     RDKit          3D

 22 23  0  0  0  0  0  0  0  0999 V2000
   -2.0373    1.4219    0.5985 C   0  0  0  0  0  0  0  0  0  0  0  0
   -1.1857    0.2030    0.5642 C   0  0  2  0  0  0  0  0  0  0  0  0
    0.1598    0.3975    0.0023 C   0  0  0  0  0  0  0  0  0  0  0  0
    1.0971    1.4003   -0.0917 C   0  0  0  0  0  0  0  0  0  0  0  0
    2.4553    1.1144   -0.1458 C   0  0  0  0  0  0  0  0  0  0  0  0
    2.8803   -0.2005   -0.0227 C   0  0  0  0  0  0  0  0  0  0  0  0
    1.9571   -1.2089   -0.2654 C   0  0  0  0  0  0  0  0  0  0  0  0
    0.6178   -0.8802   -0.2959 C   0  0  0  0  0  0  0  0  0  0  0  0
   -0.5644   -1.7187   -0.6445 C   0  0  0  0  0  0  0  0  0  0  0  0
   -1.7565   -0.8066   -0.4246 C   0  0  0  0  0  0  0  0  0  0  0  0
   -1.4620    2.3100    0.9286 H   0  0  0  0  0  0  0  0  0  0  0  0
   -2.5839    1.5856   -0.3526 H   0  0  0  0  0  0  0  0  0  0  0  0
   -2.8196    1.2573    1.3719 H   0  0  0  0  0  0  0  0  0  0  0  0
   -1.0934   -0.2910    1.5482 H   0  0  0  0  0  0  0  0  0  0  0  0
    0.7137    2.4134   -0.0633 H   0  0  0  0  0  0  0  0  0  0  0  0
    3.1549    1.8629    0.2298 H   0  0  0  0  0  0  0  0  0  0  0  0
    3.9334   -0.4443    0.1284 H   0  0  0  0  0  0  0  0  0  0  0  0
    2.3298   -2.2183   -0.1594 H   0  0  0  0  0  0  0  0  0  0  0  0
   -0.6659   -2.5743    0.0616 H   0  0  0  0  0  0  0  0  0  0  0  0
   -0.4776   -2.0285   -1.6991 H   0  0  0  0  0  0  0  0  0  0  0  0
   -2.5879   -1.3060    0.0908 H   0  0  0  0  0  0  0  0  0  0  0  0
   -2.0650   -0.2891   -1.3594 H   0  0  0  0  0  0  0  0  0  0  0  0
  1  2  1  0
  2  3  1  0
  3  4  2  0
  4  5  1  0
  5  6  2  0
  6  7  1  0
  7  8  2  0
  8  9  1  0
  9 10  1  0
 10  2  1  0
  8  3  1  0
  1 11  1  0
  1 12  1  0
  1 13  1  0
  2 14  1  1
  4 15  1  0
  5 16  1  0
  6 17  1  0
  7 18  1  0
  9 19  1  0
  9 20  1  0
 10 21  1  0
 10 22  1  0
M  END
