
     RDKit          3D

 27 27  0  0  0  0  0  0  0  0999 V2000
   -2.0948   -0.3194    1.0503 C   0  0  0  0  0  0  0  0  0  0  0  0
   -1.2174   -1.3766    0.4474 C   0  0  0  0  0  0  0  0  0  0  0  0
    0.2618   -1.0538    0.6460 C   0  0  0  0  0  0  0  0  0  0  0  0
    0.7141   -0.3548   -0.6030 C   0  0  0  0  0  0  0  0  0  0  0  0
    2.2045   -0.3281   -0.7046 C   0  0  0  0  0  0  0  0  0  0  0  0
    2.8885    0.3629    0.4380 C   0  0  0  0  0  0  0  0  0  0  0  0
    0.1042    1.0122   -0.7651 C   0  0  0  0  0  0  0  0  0  0  0  0
   -1.3746    0.9621   -0.9983 C   0  0  0  0  0  0  0  0  0  0  0  0
   -2.2048    0.9305    0.2466 C   0  0  0  0  0  0  0  0  0  0  0  0
   -3.0921   -0.7934    1.2337 H   0  0  0  0  0  0  0  0  0  0  0  0
   -1.6458   -0.0546    2.0410 H   0  0  0  0  0  0  0  0  0  0  0  0
   -1.4095   -2.3216    1.0159 H   0  0  0  0  0  0  0  0  0  0  0  0
   -1.4373   -1.6032   -0.6078 H   0  0  0  0  0  0  0  0  0  0  0  0
    0.3514   -0.4389    1.5552 H   0  0  0  0  0  0  0  0  0  0  0  0
    0.8057   -2.0080    0.7283 H   0  0  0  0  0  0  0  0  0  0  0  0
    0.3480   -0.9683   -1.4648 H   0  0  0  0  0  0  0  0  0  0  0  0
    2.5507    0.1296   -1.6405 H   0  0  0  0  0  0  0  0  0  0  0  0
    2.5714   -1.3809   -0.7217 H   0  0  0  0  0  0  0  0  0  0  0  0
    3.9867    0.2756    0.2354 H   0  0  0  0  0  0  0  0  0  0  0  0
    2.7306   -0.1288    1.4142 H   0  0  0  0  0  0  0  0  0  0  0  0
    2.6364    1.4296    0.5276 H   0  0  0  0  0  0  0  0  0  0  0  0
    0.5513    1.4428   -1.6973 H   0  0  0  0  0  0  0  0  0  0  0  0
    0.3877    1.6890    0.0506 H   0  0  0  0  0  0  0  0  0  0  0  0
   -1.6439    0.1267   -1.6569 H   0  0  0  0  0  0  0  0  0  0  0  0
   -1.6507    1.9070   -1.5326 H   0  0  0  0  0  0  0  0  0  0  0  0
   -3.2679    1.0101   -0.0998 H   0  0  0  0  0  0  0  0  0  0  0  0
   -2.0541    1.8522    0.8624 H   0  0  0  0  0  0  0  0  0  0  0  0
  1  2  1  0
  2  3  1  0
  3  4  1  0
  4  5  1  0
  5  6  1  0
  4  7  1  0
  7  8  1  0
  8  9  1  0
  9  1  1  0
  1 10  1  0
  1 11  1  0
  2 12  1  0
  2 13  1  0
  3 14  1  0
  3 15  1  0
  4 16  1  0
  5 17  1  0
  5 18  1  0
  6 19  1  0
  6 20  1  0
  6 21  1  0
  7 22  1  0
  7 23  1  0
  8 24  1  0
  8 25  1  0
  9 26  1  0
  9 27  1  0
M  END
