
     RDKit          3D

 78 81  0  0  0  0  0  0  0  0999 V2000
   -2.6969   -2.0188   -0.4112 C   0  0  0  0  0  0  0  0  0  0  0  0
   -3.4354   -1.6114    0.8128 C   0  0  0  0  0  0  0  0  0  0  0  0
   -3.5516   -0.1347    1.0421 C   0  0  0  0  0  0  0  0  0  0  0  0
   -4.4424    0.5909    0.1016 C   0  0  0  0  0  0  0  0  0  0  0  0
   -5.7967    1.1324    0.6415 C   0  0  0  0  0  0  0  0  0  0  0  0
   -5.7537   -0.0266   -0.2651 C   0  0  0  0  0  0  0  0  0  0  0  0
   -3.8142    1.4211   -0.9403 C   0  0  0  0  0  0  0  0  0  0  0  0
   -2.4817    2.0045   -0.6624 C   0  0  0  0  0  0  0  0  0  0  0  0
   -2.4352    3.0749    0.3757 C   0  0  0  0  0  0  0  0  0  0  0  0
   -1.0371    3.6816    0.3176 C   0  0  0  0  0  0  0  0  0  0  0  0
   -0.0126    2.8441    1.0185 C   0  0  0  0  0  0  0  0  0  0  0  0
    1.0321    2.3609    0.0284 C   0  0  0  0  0  0  0  0  0  0  0  0
    2.1414    1.6004    0.6921 C   0  0  0  0  0  0  0  0  0  0  0  0
    2.3669    0.2244    0.0754 C   0  0  0  0  0  0  0  0  0  0  0  0
    2.8114    0.3771   -1.4007 C   0  0  0  0  0  0  0  0  0  0  0  0
    4.1983    0.4516   -1.3388 C   0  0  0  0  0  0  0  0  0  0  0  0
    5.5403    0.6055   -1.6839 C   0  0  0  0  0  0  0  0  0  0  0  0
    6.2937    0.2943   -0.3657 C   0  0  0  0  0  0  0  0  0  0  0  0
    5.6215    0.7209    0.8694 C   0  0  0  0  0  0  0  0  0  0  0  0
    4.5210    0.0591    1.5333 C   0  0  0  0  0  0  0  0  0  0  0  0
    3.3144   -0.5055    0.9424 C   0  0  0  0  0  0  0  0  0  0  0  0
    1.0259   -0.4544    0.0858 C   0  0  0  0  0  0  0  0  0  0  0  0
    1.0856   -1.9489    0.1491 C   0  0  0  0  0  0  0  0  0  0  0  0
   -0.3304   -2.4734    0.3389 C   0  0  0  0  0  0  0  0  0  0  0  0
   -0.4731   -3.8940   -0.1775 C   0  0  0  0  0  0  0  0  0  0  0  0
   -1.8925   -4.3281    0.1715 C   0  0  0  0  0  0  0  0  0  0  0  0
   -2.8546   -3.4949   -0.6283 C   0  0  0  0  0  0  0  0  0  0  0  0
   -1.2588   -1.6146   -0.4504 C   0  0  0  0  0  0  0  0  0  0  0  0
   -3.1906   -1.5198   -1.2842 H   0  0  0  0  0  0  0  0  0  0  0  0
   -4.4471   -2.0367    0.7771 H   0  0  0  0  0  0  0  0  0  0  0  0
   -2.9574   -2.0370    1.7320 H   0  0  0  0  0  0  0  0  0  0  0  0
   -2.5753    0.3723    1.1727 H   0  0  0  0  0  0  0  0  0  0  0  0
   -4.0263   -0.0483    2.0566 H   0  0  0  0  0  0  0  0  0  0  0  0
   -5.9650    1.0043    1.7276 H   0  0  0  0  0  0  0  0  0  0  0  0
   -6.1363    2.1023    0.2493 H   0  0  0  0  0  0  0  0  0  0  0  0
   -6.0815   -0.9865    0.1572 H   0  0  0  0  0  0  0  0  0  0  0  0
   -6.1548    0.1457   -1.2925 H   0  0  0  0  0  0  0  0  0  0  0  0
   -3.7164    0.8007   -1.8681 H   0  0  0  0  0  0  0  0  0  0  0  0
   -4.4901    2.2608   -1.2438 H   0  0  0  0  0  0  0  0  0  0  0  0
   -1.7330    1.1918   -0.4817 H   0  0  0  0  0  0  0  0  0  0  0  0
   -2.1342    2.4794   -1.6171 H   0  0  0  0  0  0  0  0  0  0  0  0
   -2.6413    2.7476    1.4016 H   0  0  0  0  0  0  0  0  0  0  0  0
   -3.1842    3.8371    0.1211 H   0  0  0  0  0  0  0  0  0  0  0  0
   -0.8002    3.7962   -0.7702 H   0  0  0  0  0  0  0  0  0  0  0  0
   -1.1039    4.7244    0.7157 H   0  0  0  0  0  0  0  0  0  0  0  0
    0.5288    3.5183    1.7301 H   0  0  0  0  0  0  0  0  0  0  0  0
   -0.4273    2.0363    1.6376 H   0  0  0  0  0  0  0  0  0  0  0  0
    1.4831    3.2843   -0.4171 H   0  0  0  0  0  0  0  0  0  0  0  0
    0.5510    1.8361   -0.8059 H   0  0  0  0  0  0  0  0  0  0  0  0
    1.7905    1.3807    1.7332 H   0  0  0  0  0  0  0  0  0  0  0  0
    3.0624    2.1820    0.8034 H   0  0  0  0  0  0  0  0  0  0  0  0
    2.3266   -0.4678   -1.9539 H   0  0  0  0  0  0  0  0  0  0  0  0
    2.2666    1.2875   -1.7601 H   0  0  0  0  0  0  0  0  0  0  0  0
    4.3224   -0.5838   -0.9278 H   0  0  0  0  0  0  0  0  0  0  0  0
    4.2068    1.3159   -0.6249 H   0  0  0  0  0  0  0  0  0  0  0  0
    5.9353   -0.1366   -2.4248 H   0  0  0  0  0  0  0  0  0  0  0  0
    5.8855    1.5929   -2.0854 H   0  0  0  0  0  0  0  0  0  0  0  0
    7.2472    0.8276   -0.4625 H   0  0  0  0  0  0  0  0  0  0  0  0
    6.4664   -0.8075   -0.3329 H   0  0  0  0  0  0  0  0  0  0  0  0
    5.4706    1.8351    0.8150 H   0  0  0  0  0  0  0  0  0  0  0  0
    6.4652    0.7062    1.6250 H   0  0  0  0  0  0  0  0  0  0  0  0
    4.9278   -0.7831    2.1613 H   0  0  0  0  0  0  0  0  0  0  0  0
    4.1882    0.7875    2.3261 H   0  0  0  0  0  0  0  0  0  0  0  0
    3.5175   -1.5562    0.5963 H   0  0  0  0  0  0  0  0  0  0  0  0
    2.6622   -0.7504    1.8352 H   0  0  0  0  0  0  0  0  0  0  0  0
    0.5343   -0.1928   -0.8836 H   0  0  0  0  0  0  0  0  0  0  0  0
    0.4723   -0.1041    0.9683 H   0  0  0  0  0  0  0  0  0  0  0  0
    1.4173   -2.3123   -0.8507 H   0  0  0  0  0  0  0  0  0  0  0  0
    1.6807   -2.3510    0.9822 H   0  0  0  0  0  0  0  0  0  0  0  0
   -0.5257   -2.4981    1.4191 H   0  0  0  0  0  0  0  0  0  0  0  0
    0.1955   -4.6003    0.3587 H   0  0  0  0  0  0  0  0  0  0  0  0
   -0.2928   -3.9590   -1.2764 H   0  0  0  0  0  0  0  0  0  0  0  0
   -2.0686   -5.3880   -0.1021 H   0  0  0  0  0  0  0  0  0  0  0  0
   -2.0143   -4.1901    1.2590 H   0  0  0  0  0  0  0  0  0  0  0  0
   -2.6157   -3.6845   -1.7054 H   0  0  0  0  0  0  0  0  0  0  0  0
   -3.8833   -3.8397   -0.4308 H   0  0  0  0  0  0  0  0  0  0  0  0
   -1.2370   -0.5894    0.0008 H   0  0  0  0  0  0  0  0  0  0  0  0
   -0.8873   -1.5687   -1.4909 H   0  0  0  0  0  0  0  0  0  0  0  0
  1  2  1  0
  2  3  1  0
  3  4  1  0
  4  5  1  0
  5  6  1  0
  4  7  1  0
  7  8  1  0
  8  9  1  0
  9 10  1  0
 10 11  1  0
 11 12  1  0
 12 13  1  0
 13 14  1  0
 14 15  1  0
 15 16  1  0
 16 17  1  0
 17 18  1  0
 18 19  1  0
 19 20  1  0
 20 21  1  0
 14 22  1  0
 22 23  1  0
 23 24  1  0
 24 25  1  0
 25 26  1  0
 26 27  1  0
 24 28  1  0
 28  1  1  0
 27  1  1  0
  6  4  1  0
 21 14  1  0
  1 29  1  0
  2 30  1  0
  2 31  1  0
  3 32  1  0
  3 33  1  0
  5 34  1  0
  5 35  1  0
  6 36  1  0
  6 37  1  0
  7 38  1  0
  7 39  1  0
  8 40  1  0
  8 41  1  0
  9 42  1  0
  9 43  1  0
 10 44  1  0
 10 45  1  0
 11 46  1  0
 11 47  1  0
 12 48  1  0
 12 49  1  0
 13 50  1  0
 13 51  1  0
 15 52  1  0
 15 53  1  0
 16 54  1  0
 16 55  1  0
 17 56  1  0
 17 57  1  0
 18 58  1  0
 18 59  1  0
 19 60  1  0
 19 61  1  0
 20 62  1  0
 20 63  1  0
 21 64  1  0
 21 65  1  0
 22 66  1  0
 22 67  1  0
 23 68  1  0
 23 69  1  0
 24 70  1  0
 25 71  1  0
 25 72  1  0
 26 73  1  0
 26 74  1  0
 27 75  1  0
 27 76  1  0
 28 77  1  0
 28 78  1  0
M  END
